<?xml version="1.0" encoding="utf-8"?>
<!-- generated on 2022-11-23 10:46:48.449731 by osmWebWizard.py UNKNOWN
<configuration>
    <end value="3600"/>
    <fringe-factor value="5.0"/>
    <fringe-start-attributes value="departSpeed=&quot;max&quot;"/>
    <min-distance value="600.0"/>
    <net-file value="/Users/hjalte/Documents/DTU/Model Based System Engineering/SUMO/2022-11-23-10-45-40/osm.net.xml"/>
    <period value="0.5400092881597581"/>
    <route-file value="/Users/hjalte/Documents/DTU/Model Based System Engineering/SUMO/2022-11-23-10-45-40/osm.truck.rou.xml"/>
    <trip-attributes value="departLane=&quot;best&quot;"/>
    <output-trip-file value="/Users/hjalte/Documents/DTU/Model Based System Engineering/SUMO/2022-11-23-10-45-40/osm.truck.trips.xml"/>
    <prefix value="truck"/>
    <validate value="True"/>
    <vclass value="truck"/>
    <vehicle-class value="truck"/>
</configuration>
-->
<!-- generated on 2022-11-23 10:46:41 by Eclipse SUMO duarouter Version 1.14.1
<configuration xmlns:xsi="http://www.w3.org/2001/XMLSchema-instance" xsi:noNamespaceSchemaLocation="http://sumo.dlr.de/xsd/duarouterConfiguration.xsd">

    <input>
        <net-file value="/Users/hjalte/Documents/DTU/Model%20Based%20System%20Engineering/SUMO/2022-11-23-10-45-40/osm.net.xml"/>
        <route-files value="/Users/hjalte/Documents/DTU/Model%20Based%20System%20Engineering/SUMO/2022-11-23-10-45-40/osm.truck.trips.xml"/>
    </input>

    <output>
        <output-file value="/Users/hjalte/Documents/DTU/Model%20Based%20System%20Engineering/SUMO/2022-11-23-10-45-40/osm.truck.trips.xml.tmp"/>
        <alternatives-output value="NUL"/>
        <write-trips value="true"/>
    </output>

    <time>
        <begin value="0"/>
        <end value="3600"/>
    </time>

    <report>
        <no-warnings value="true"/>
        <ignore-errors value="true"/>
        <no-step-log value="true"/>
    </report>

</configuration>
-->
<routes xmlns:xsi="http://www.w3.org/2001/XMLSchema-instance" xsi:noNamespaceSchemaLocation="http://sumo.dlr.de/xsd/routes_file.xsd">
 <vType id="truck_truck" vClass="truck"/>
 <trip depart="0.00" departLane="best" from="23803819#0" id="truck0" to="-119370263#3" type="truck_petrol"/>
 <trip depart="0.54" departLane="best" departSpeed="max" from="-3992341#1" id="truck1" to="-3648994" type="truck_petrol"/>
 <trip depart="1.08" departLane="best" from="330916631#0" id="truck2" to="27413630#0" type="truck_petrol"/>
 <trip depart="1.62" departLane="best" from="597020325#0" id="truck3" to="-1820406#0" type="truck_petrol"/>
 <trip depart="2.16" departLane="best" from="1002168447" id="truck4" to="-130200218#1" type="truck_hybrid"/>
 <trip depart="2.70" departLane="best" from="-28288238#5" id="truck5" to="1822847#0" type="truck_hybrid"/>
 <trip depart="3.24" departLane="best" departSpeed="max" from="-113539897#2" id="truck6" to="-30343395#2" type="truck_hybrid"/>
 <trip depart="3.78" departLane="best" from="24710258#0" id="truck7" to="1888722#1" type="truck_petrol"/>
 <trip depart="4.32" departLane="best" departSpeed="max" from="-285594217#5" id="truck8" to="23694545#11" type="truck_petrol"/>
 <trip depart="4.86" departLane="best" from="4256854#0" id="truck9" to="-1039344874" type="truck_petrol"/>
 <trip depart="5.94" departLane="best" departSpeed="max" from="-566994043#1" id="truck11" to="-2523501#3" type="truck_petrol"/>
 <trip depart="6.48" departLane="best" departSpeed="max" from="8122386#0" id="truck12" to="-797134489#0" type="truck_petrol"/>
 <trip depart="7.02" departLane="best" from="-1820398#0" id="truck13" to="-1880652#2" type="truck_hybrid"/>
 <trip depart="7.56" departLane="best" from="496717295#0" id="truck14" to="237353970#4" type="truck_petrol"/>
 <trip depart="8.10" departLane="best" departSpeed="max" from="4235320" id="truck15" to="3609429#11" type="truck_petrol"/>
 <trip depart="8.64" departLane="best" departSpeed="max" from="176014432#0" id="truck16" to="8141686#2" type="truck_hybrid"/>
 <trip depart="9.18" departLane="best" from="-792935862#1" id="truck17" to="1911065#0" type="truck_hybrid"/>
 <trip depart="9.72" departLane="best" from="455570582#0" id="truck18" to="24558547#3" type="truck_petrol"/>
 <trip depart="10.26" departLane="best" from="502199399#0" id="truck19" to="210620012#3" type="truck_petrol"/>
 <trip depart="10.80" departLane="best" from="2796#0" id="truck20" to="-152923211#3" type="truck_petrol"/>
 <trip depart="11.34" departLane="best" from="-297205723#6" id="truck21" to="-532563701" type="truck_petrol"/>
 <trip depart="11.88" departLane="best" from="-1757749#3" id="truck22" to="-3991346#5" type="truck_hybrid"/>
 <trip depart="12.42" departLane="best" from="-1880640#1" id="truck23" to="-497004560#1" type="truck_hybrid"/>
 <trip depart="12.96" departLane="best" from="237365312#4" id="truck24" to="-9259073#2" type="truck_petrol"/>
 <trip depart="13.50" departLane="best" from="-78375424#0" id="truck25" to="-35155058#4" type="truck_petrol"/>
 <trip depart="14.04" departLane="best" departSpeed="max" from="-39597176#3" id="truck26" to="78456674#3" type="truck_petrol"/>
 <trip depart="14.58" departLane="best" from="24558547#4" id="truck27" to="23803895#1" type="truck_petrol"/>
 <trip depart="15.12" departLane="best" from="-24471932#1" id="truck28" to="360157610#7" type="truck_hybrid"/>
 <trip depart="15.66" departLane="best" from="-23790374#0" id="truck29" to="104704314#0" type="truck_petrol"/>
 <trip depart="16.20" departLane="best" departSpeed="max" from="901168426" id="truck30" to="26163234#1" type="truck_petrol"/>
 <trip depart="16.74" departLane="best" from="1880380#0" id="truck31" to="2800196#1" type="truck_petrol"/>
 <trip depart="17.28" departLane="best" from="495915487#0" id="truck32" to="3994932#5" type="truck_hybrid"/>
 <trip depart="17.82" departLane="best" departSpeed="max" from="-303933427#3" id="truck33" to="-141883059" type="truck_petrol"/>
 <trip depart="18.90" departLane="best" departSpeed="max" from="-27888835#1" id="truck35" to="792935857#0" type="truck_petrol"/>
 <trip depart="19.44" departLane="best" from="547642197#0" id="truck36" to="-747146466#0" type="truck_hybrid"/>
 <trip depart="19.98" departLane="best" from="25141944#0" id="truck37" to="1070746231" type="truck_petrol"/>
 <trip depart="20.52" departLane="best" from="736254958#0" id="truck38" to="162094359#0" type="truck_petrol"/>
 <trip depart="21.06" departLane="best" from="1880640#0" id="truck39" to="-451935263" type="truck_hybrid"/>
 <trip depart="22.14" departLane="best" from="-8128676#1" id="truck41" to="-364393486#3" type="truck_petrol"/>
 <trip depart="22.68" departLane="best" from="946767471#2" id="truck42" to="1880428#0" type="truck_petrol"/>
 <trip depart="23.22" departLane="best" from="-1811000" id="truck43" to="-154093948#1" type="truck_petrol"/>
 <trip depart="23.76" departLane="best" from="-1881209#2" id="truck44" to="25141927" type="truck_petrol"/>
 <trip depart="24.30" departLane="best" from="4134148#2" id="truck45" to="131483175#0" type="truck_petrol"/>
 <trip depart="24.84" departLane="best" departSpeed="max" from="-165285654#3" id="truck46" to="105076451#0" type="truck_petrol"/>
 <trip depart="25.38" departLane="best" departSpeed="max" from="933167822" id="truck47" to="1881335" type="truck_hybrid"/>
 <trip depart="25.92" departLane="best" from="8141676#0" id="truck48" to="504368541#0" type="truck_petrol"/>
 <trip depart="26.46" departLane="best" departSpeed="max" from="-105076450" id="truck49" to="351693645#0" type="truck_petrol"/>
 <trip depart="27.00" departLane="best" from="27226034#0" id="truck50" to="1881701#2" type="truck_hybrid"/>
 <trip depart="27.54" departLane="best" departSpeed="max" from="-39597176#3" id="truck51" to="26172501" type="truck_petrol"/>
 <trip depart="28.08" departLane="best" departSpeed="max" from="-1881220" id="truck52" to="150032853" type="truck_petrol"/>
 <trip depart="28.62" departLane="best" from="1096146333" id="truck53" to="8121739#2" type="truck_hybrid"/>
 <trip depart="29.16" departLane="best" from="545444990#0" id="truck54" to="-466904497#1" type="truck_hybrid"/>
 <trip depart="29.70" departLane="best" departSpeed="max" from="160084558#0" id="truck55" to="-27360362" type="truck_petrol"/>
 <trip depart="30.78" departLane="best" from="-4256855#6" id="truck57" to="25993105" type="truck_petrol"/>
 <trip depart="31.32" departLane="best" from="218228185#0" id="truck58" to="-24858586#4" type="truck_hybrid"/>
 <trip depart="31.86" departLane="best" from="36523269" id="truck59" to="1881817#2" type="truck_petrol"/>
 <trip depart="32.94" departLane="best" departSpeed="max" from="-1015943968" id="truck61" to="-78804899#0" type="truck_petrol"/>
 <trip depart="33.48" departLane="best" departSpeed="max" from="-107627296#10" id="truck62" to="76026952#0" type="truck_hybrid"/>
 <trip depart="34.02" departLane="best" departSpeed="max" from="555575816#0" id="truck63" to="4892388#1" type="truck_hybrid"/>
 <trip depart="34.56" departLane="best" from="-451935263" id="truck64" to="-162074188" type="truck_petrol"/>
 <trip depart="35.10" departLane="best" from="549992080#3" id="truck65" to="794415936" type="truck_petrol"/>
 <trip depart="35.64" departLane="best" departSpeed="max" from="-168751815#3" id="truck66" to="3991347#0" type="truck_petrol"/>
 <trip depart="36.18" departLane="best" from="3666044" id="truck67" to="-224457067#3" type="truck_petrol"/>
 <trip depart="36.72" departLane="best" from="144425341#2" id="truck68" to="190670388#5" type="truck_petrol"/>
 <trip depart="37.26" departLane="best" departSpeed="max" from="-38503789" id="truck69" to="547695554#0" type="truck_petrol"/>
 <trip depart="37.80" departLane="best" from="1018612470#0" id="truck70" to="-356696435#3" type="truck_petrol"/>
 <trip depart="38.34" departLane="best" from="1794674" id="truck71" to="3609429#11" type="truck_petrol"/>
 <trip depart="38.88" departLane="best" from="9259073#3" id="truck72" to="27037355#0" type="truck_petrol"/>
 <trip depart="39.42" departLane="best" from="10626400#12" id="truck73" to="1880902" type="truck_petrol"/>
 <trip depart="39.96" departLane="best" departSpeed="max" from="-1881816" id="truck74" to="-3665649#0" type="truck_petrol"/>
 <trip depart="40.50" departLane="best" departSpeed="max" from="-558860532" id="truck75" to="2351478#2" type="truck_petrol"/>
 <trip depart="41.04" departLane="best" from="-30473723#1" id="truck76" to="-3648983#0" type="truck_hybrid"/>
 <trip depart="41.58" departLane="best" from="-1694117#2" id="truck77" to="25358263#0" type="truck_hybrid"/>
 <trip depart="42.12" departLane="best" from="-303931732#1" id="truck78" to="689364545" type="truck_petrol"/>
 <trip depart="42.66" departLane="best" from="502187420" id="truck79" to="-1707815#2" type="truck_petrol"/>
 <trip depart="43.20" departLane="best" from="-330946669" id="truck80" to="27283284#0" type="truck_petrol"/>
 <trip depart="43.74" departLane="best" departSpeed="max" from="-2799542#3" id="truck81" to="-234571649#6" type="truck_petrol"/>
 <trip depart="44.28" departLane="best" departSpeed="max" from="783687963" id="truck82" to="201983348" type="truck_petrol"/>
 <trip depart="44.82" departLane="best" from="143488594" id="truck83" to="419983441#2" type="truck_petrol"/>
 <trip depart="45.36" departLane="best" from="42404324#0" id="truck84" to="-28612121#19" type="truck_petrol"/>
 <trip depart="45.90" departLane="best" from="-1826425" id="truck85" to="145110209#0" type="truck_petrol"/>
 <trip depart="46.44" departLane="best" from="1021148115#4" id="truck86" to="165504611#0" type="truck_hybrid"/>
 <trip depart="46.98" departLane="best" departSpeed="max" from="307010785#0" id="truck87" to="27359108#0" type="truck_hybrid"/>
 <trip depart="47.52" departLane="best" from="87325152#7" id="truck88" to="-1881083#1" type="truck_petrol"/>
 <trip depart="48.06" departLane="best" departSpeed="max" from="-8141686#3" id="truck89" to="-8122386#2" type="truck_petrol"/>
 <trip depart="48.60" departLane="best" from="502199399#0" id="truck90" to="-4223045#1" type="truck_petrol"/>
 <trip depart="49.14" departLane="best" departSpeed="max" from="-262406523#6" id="truck91" to="160328977#1" type="truck_petrol"/>
 <trip depart="49.68" departLane="best" from="1002168445" id="truck92" to="-497004562#7" type="truck_petrol"/>
 <trip depart="50.22" departLane="best" departSpeed="max" from="-3648977#3" id="truck93" to="745633511#6" type="truck_petrol"/>
 <trip depart="50.76" departLane="best" from="106789567" id="truck94" to="504370301" type="truck_petrol"/>
 <trip depart="51.30" departLane="best" from="1820400#0" id="truck95" to="-158179232#5" type="truck_hybrid"/>
 <trip depart="51.84" departLane="best" from="975382208#0" id="truck96" to="495927322#0" type="truck_petrol"/>
 <trip depart="52.38" departLane="best" from="8123063#0" id="truck97" to="751406910#3" type="truck_petrol"/>
 <trip depart="52.92" departLane="best" from="496719502#6" id="truck98" to="-27222736" type="truck_petrol"/>
 <trip depart="53.46" departLane="best" from="1519004#0" id="truck99" to="-357762965#3" type="truck_petrol"/>
 <trip depart="54.00" departLane="best" departSpeed="max" from="-8131032#7" id="truck100" to="-162094359#0" type="truck_hybrid"/>
 <trip depart="54.54" departLane="best" from="-793529327#2" id="truck101" to="87325171#2" type="truck_petrol"/>
 <trip depart="55.08" departLane="best" from="-38507726#1" id="truck102" to="419969433" type="truck_petrol"/>
 <trip depart="55.62" departLane="best" from="1106050271#0" id="truck103" to="134283796#0" type="truck_petrol"/>
 <trip depart="56.16" departLane="best" departSpeed="max" from="8122386#0" id="truck104" to="929412328#0" type="truck_petrol"/>
 <trip depart="56.70" departLane="best" departSpeed="max" from="185161896#0" id="truck105" to="340215713#5" type="truck_petrol"/>
 <trip depart="57.24" departLane="best" from="-2351770#4" id="truck106" to="-58153694#0" type="truck_hybrid"/>
 <trip depart="57.78" departLane="best" from="8123059#4" id="truck107" to="218228185#0" type="truck_petrol"/>
 <trip depart="58.32" departLane="best" from="1803214#1" id="truck108" to="367476299#0" type="truck_petrol"/>
 <trip depart="58.86" departLane="best" from="-161870729#2" id="truck109" to="229210315#0" type="truck_petrol"/>
 <trip depart="59.40" departLane="best" from="161638303" id="truck110" to="502187420" type="truck_hybrid"/>
 <trip depart="59.94" departLane="best" from="-237111840#2" id="truck111" to="8122654#8" type="truck_petrol"/>
 <trip depart="60.48" departLane="best" departSpeed="max" from="-176011248#1" id="truck112" to="-2799539#5" type="truck_petrol"/>
 <trip depart="61.02" departLane="best" from="1928322#0" id="truck113" to="27360376" type="truck_hybrid"/>
 <trip depart="61.56" departLane="best" from="-325395042#1" id="truck114" to="-1966241#0" type="truck_petrol"/>
 <trip depart="62.10" departLane="best" departSpeed="max" from="58700472#0" id="truck115" to="-4212088" type="truck_petrol"/>
 <trip depart="62.64" departLane="best" from="1913008#2" id="truck116" to="24626898#1" type="truck_petrol"/>
 <trip depart="63.18" departLane="best" from="-967388900" id="truck117" to="228296981#0" type="truck_petrol"/>
 <trip depart="63.72" departLane="best" from="-27283369#0" id="truck118" to="330916631#0" type="truck_petrol"/>
 <trip depart="64.26" departLane="best" from="-333968639" id="truck119" to="1073283586#0" type="truck_petrol"/>
 <trip depart="64.80" departLane="best" from="27037619#2" id="truck120" to="-58700472#1" type="truck_petrol"/>
 <trip depart="65.34" departLane="best" departSpeed="max" from="-495928208" id="truck121" to="378431896#0" type="truck_petrol"/>
 <trip depart="65.88" departLane="best" from="-1701843#2" id="truck122" to="162089324#0" type="truck_petrol"/>
 <trip depart="66.42" departLane="best" from="970116243#3" id="truck123" to="931333090#3" type="truck_hybrid"/>
 <trip depart="66.96" departLane="best" from="-1702962#0" id="truck124" to="-357115252#6" type="truck_petrol"/>
 <trip depart="67.50" departLane="best" from="-38507726#1" id="truck125" to="783671651" type="truck_hybrid"/>
 <trip depart="68.04" departLane="best" from="56366095#6" id="truck126" to="571263648" type="truck_petrol"/>
 <trip depart="68.58" departLane="best" departSpeed="max" from="-783687962" id="truck127" to="-25843421#0" type="truck_hybrid"/>
 <trip depart="69.12" departLane="best" departSpeed="max" from="4778329#0" id="truck128" to="30194555" type="truck_petrol"/>
 <trip depart="69.66" departLane="best" from="224457067#6" id="truck129" to="87411972#3" type="truck_petrol"/>
 <trip depart="70.20" departLane="best" from="24844949#0" id="truck130" to="-104738074#3" type="truck_petrol"/>
 <trip depart="70.74" departLane="best" from="4369053#0" id="truck131" to="-58700468#8" type="truck_petrol"/>
 <trip depart="71.28" departLane="best" from="26163234#0" id="truck132" to="788127493#0" type="truck_hybrid"/>
 <trip depart="71.82" departLane="best" from="-1931231#4" id="truck133" to="-1906292" type="truck_petrol"/>
 <trip depart="72.36" departLane="best" from="-1881083#2" id="truck134" to="1911068#3" type="truck_petrol"/>
 <trip depart="72.90" departLane="best" from="-3991410" id="truck135" to="237356620#0" type="truck_petrol"/>
 <trip depart="73.44" departLane="best" departSpeed="max" from="29368110#0" id="truck136" to="-317083965" type="truck_petrol"/>
 <trip depart="73.98" departLane="best" departSpeed="max" from="237355961#0" id="truck137" to="-4766680#1" type="truck_petrol"/>
 <trip depart="74.52" departLane="best" departSpeed="max" from="152923211#0" id="truck138" to="689364544" type="truck_hybrid"/>
 <trip depart="75.06" departLane="best" from="496181691" id="truck139" to="-1880408" type="truck_hybrid"/>
 <trip depart="75.60" departLane="best" from="1021148115#4" id="truck140" to="-496981127#3" type="truck_hybrid"/>
 <trip depart="76.68" departLane="best" from="23790934#4" id="truck142" to="-4406083#0" type="truck_hybrid"/>
 <trip depart="77.22" departLane="best" departSpeed="max" from="3481020#0" id="truck143" to="1911062#0" type="truck_hybrid"/>
 <trip depart="77.76" departLane="best" from="102451714" id="truck144" to="-105561357#2" type="truck_petrol"/>
 <trip depart="78.30" departLane="best" from="-1718351#8" id="truck145" to="58153688#4" type="truck_hybrid"/>
 <trip depart="78.84" departLane="best" from="683520700#0" id="truck146" to="1890427#1" type="truck_hybrid"/>
 <trip depart="79.38" departLane="best" departSpeed="max" from="4778341#0" id="truck147" to="224713777#3" type="truck_petrol"/>
 <trip depart="79.92" departLane="best" from="-208938452#7" id="truck148" to="-222795404#13" type="truck_petrol"/>
 <trip depart="80.46" departLane="best" departSpeed="max" from="-45763273#7" id="truck149" to="672675011#2" type="truck_petrol"/>
 <trip depart="81.00" departLane="best" from="419983449" id="truck150" to="504368541#0" type="truck_petrol"/>
 <trip depart="82.08" departLane="best" departSpeed="max" from="-3648977#3" id="truck152" to="-1881217#4" type="truck_hybrid"/>
 <trip depart="82.62" departLane="best" departSpeed="max" from="3991391#0" id="truck153" to="58153703#10" type="truck_petrol"/>
 <trip depart="83.16" departLane="best" from="-86370286#3" id="truck154" to="24710259#0" type="truck_petrol"/>
 <trip depart="83.70" departLane="best" from="-234470016#1" id="truck155" to="769874903#1" type="truck_petrol"/>
 <trip depart="84.24" departLane="best" from="502723027#0" id="truck156" to="83348641#0" type="truck_petrol"/>
 <trip depart="84.78" departLane="best" from="-1109718992" id="truck157" to="3648986#1" type="truck_petrol"/>
 <trip depart="85.32" departLane="best" departSpeed="max" from="-5073895" id="truck158" to="772456059" type="truck_hybrid"/>
 <trip depart="85.86" departLane="best" from="4214526#1" id="truck159" to="507922082#1" type="truck_petrol"/>
 <trip depart="86.40" departLane="best" from="4311693#2" id="truck160" to="-4778413#1" type="truck_hybrid"/>
 <trip depart="86.94" departLane="best" departSpeed="max" from="3994932#0" id="truck161" to="-1881535#8" type="truck_petrol"/>
 <trip depart="87.48" departLane="best" from="527625586#0" id="truck162" to="502761467#7" type="truck_hybrid"/>
 <trip depart="88.02" departLane="best" from="-2903781#2" id="truck163" to="448963755#0" type="truck_hybrid"/>
 <trip depart="88.56" departLane="best" from="11647238" id="truck164" to="-672668643#2" type="truck_hybrid"/>
 <trip depart="89.10" departLane="best" from="419983441#0" id="truck165" to="-367146203#1" type="truck_hybrid"/>
 <trip depart="89.64" departLane="best" departSpeed="max" from="-1103275934" id="truck166" to="-293452696#1" type="truck_petrol"/>
 <trip depart="90.18" departLane="best" from="8122896#4" id="truck167" to="-497221831" type="truck_petrol"/>
 <trip depart="90.72" departLane="best" from="2400146#0" id="truck168" to="10771099" type="truck_petrol"/>
 <trip depart="91.26" departLane="best" from="86440008#0" id="truck169" to="1881696#2" type="truck_petrol"/>
 <trip depart="91.80" departLane="best" from="78804869#0" id="truck170" to="-1906292" type="truck_petrol"/>
 <trip depart="92.34" departLane="best" from="8133435#17" id="truck171" to="-27360362" type="truck_petrol"/>
 <trip depart="92.88" departLane="best" from="8122657" id="truck172" to="-4778329#1" type="truck_petrol"/>
 <trip depart="93.42" departLane="best" departSpeed="max" from="-1881156#3" id="truck173" to="150032853" type="truck_petrol"/>
 <trip depart="93.96" departLane="best" from="305868535#0" id="truck174" to="-746031357#3" type="truck_petrol"/>
 <trip depart="94.50" departLane="best" from="-797310637" id="truck175" to="209692779#1" type="truck_hybrid"/>
 <trip depart="95.04" departLane="best" from="-36522887#1" id="truck176" to="305868535#1" type="truck_petrol"/>
 <trip depart="95.58" departLane="best" departSpeed="max" from="-1018612467#2" id="truck177" to="750910179" type="truck_petrol"/>
 <trip depart="96.12" departLane="best" from="1792950" id="truck178" to="342891530#1" type="truck_petrol"/>
 <trip depart="96.66" departLane="best" departSpeed="max" from="35155058#0" id="truck179" to="27290605" type="truck_petrol"/>
 <trip depart="97.20" departLane="best" from="-751406914#1" id="truck180" to="-1701843#2" type="truck_hybrid"/>
 <trip depart="97.74" departLane="best" from="26176315#0" id="truck181" to="-793529336#1" type="truck_petrol"/>
 <trip depart="98.28" departLane="best" departSpeed="max" from="-4873659#1" id="truck182" to="497221832#0" type="truck_petrol"/>
 <trip depart="98.82" departLane="best" from="296413951#2" id="truck183" to="-58700472#2" type="truck_petrol"/>
 <trip depart="99.36" departLane="best" departSpeed="max" from="-4778341#1" id="truck184" to="1111604196" type="truck_petrol"/>
 <trip depart="99.90" departLane="best" from="-8141686#1" id="truck185" to="-577230286#1" type="truck_petrol"/>
 <trip depart="100.44" departLane="best" departSpeed="max" from="-1890432" id="truck186" to="129370597#0" type="truck_petrol"/>
 <trip depart="101.52" departLane="best" departSpeed="max" from="-1015943968" id="truck188" to="-507922082#0" type="truck_petrol"/>
 <trip depart="102.06" departLane="best" from="103524893" id="truck189" to="222795404#3" type="truck_hybrid"/>
 <trip depart="102.60" departLane="best" from="24844953#2" id="truck190" to="164933696#0" type="truck_petrol"/>
 <trip depart="103.14" departLane="best" from="106755981#0" id="truck191" to="-3576420#3" type="truck_petrol"/>
 <trip depart="103.68" departLane="best" from="143577529#0" id="truck192" to="679140282#0" type="truck_petrol"/>
 <trip depart="104.22" departLane="best" from="419983446" id="truck193" to="-27232356" type="truck_petrol"/>
 <trip depart="104.76" departLane="best" departSpeed="max" from="-1801331" id="truck194" to="1880648#1" type="truck_petrol"/>
 <trip depart="105.30" departLane="best" from="237353963#5" id="truck195" to="-796428883#1" type="truck_hybrid"/>
 <trip depart="105.84" departLane="best" from="4369070#4" id="truck196" to="37450#0" type="truck_hybrid"/>
 <trip depart="106.38" departLane="best" from="27201303#0" id="truck197" to="-3665649#0" type="truck_hybrid"/>
 <trip depart="106.92" departLane="best" from="-27226085" id="truck198" to="-11567610#2" type="truck_petrol"/>
 <trip depart="107.46" departLane="best" from="-358320009#1" id="truck199" to="1696172#0" type="truck_petrol"/>
 <trip depart="108.00" departLane="best" from="496723169#0" id="truck200" to="-171986043" type="truck_hybrid"/>
 <trip depart="108.54" departLane="best" from="-27202604#1" id="truck201" to="293285536#0" type="truck_petrol"/>
 <trip depart="109.08" departLane="best" from="157990331#5" id="truck202" to="-41338109#3" type="truck_petrol"/>
 <trip depart="109.62" departLane="best" from="2522291#0" id="truck203" to="-1032584266#1" type="truck_petrol"/>
 <trip depart="110.16" departLane="best" from="359205989#1" id="truck204" to="3993319#0" type="truck_hybrid"/>
 <trip depart="110.70" departLane="best" from="-1881082#0" id="truck205" to="143330820#3" type="truck_petrol"/>
 <trip depart="111.24" departLane="best" departSpeed="max" from="-24861647#1" id="truck206" to="8122577#1" type="truck_petrol"/>
 <trip depart="111.78" departLane="best" from="164933763#1" id="truck207" to="-158026251#1" type="truck_petrol"/>
 <trip depart="112.32" departLane="best" from="1111604198" id="truck208" to="4256848#3" type="truck_hybrid"/>
 <trip depart="112.86" departLane="best" from="262659493" id="truck209" to="88265379#0" type="truck_petrol"/>
 <trip depart="113.40" departLane="best" from="1928820#0" id="truck210" to="797134488#0" type="truck_petrol"/>
 <trip depart="113.94" departLane="best" from="589878590#0" id="truck211" to="24026#0" type="truck_petrol"/>
 <trip depart="114.48" departLane="best" departSpeed="max" from="296413951#0" id="truck212" to="1822844#0" type="truck_hybrid"/>
 <trip depart="115.56" departLane="best" from="660183454#0" id="truck214" to="3665648#2" type="truck_petrol"/>
 <trip depart="116.10" departLane="best" from="144425316" id="truck215" to="-437218402" type="truck_petrol"/>
 <trip depart="116.64" departLane="best" departSpeed="max" from="-3609429#11" id="truck216" to="25927296" type="truck_petrol"/>
 <trip depart="117.18" departLane="best" from="3666044" id="truck217" to="1881083#3" type="truck_hybrid"/>
 <trip depart="117.72" departLane="best" from="237204096#5" id="truck218" to="-496719502#18" type="truck_hybrid"/>
 <trip depart="118.26" departLane="best" departSpeed="max" from="-174675649#9" id="truck219" to="-504374009#2" type="truck_hybrid"/>
 <trip depart="118.80" departLane="best" from="-3991391#2" id="truck220" to="-783671650" type="truck_petrol"/>
 <trip depart="119.34" departLane="best" from="1796614#9" id="truck221" to="-237353955#6" type="truck_petrol"/>
 <trip depart="119.88" departLane="best" from="-305430250#4" id="truck222" to="289577156#3" type="truck_petrol"/>
 <trip depart="120.42" departLane="best" from="2799871" id="truck223" to="-167253698" type="truck_petrol"/>
 <trip depart="120.96" departLane="best" from="-868679546#2" id="truck224" to="1881922#0" type="truck_petrol"/>
 <trip depart="121.50" departLane="best" from="-916602383" id="truck225" to="-332233279#1" type="truck_petrol"/>
 <trip depart="122.04" departLane="best" from="-975382206#1" id="truck226" to="689222888" type="truck_petrol"/>
 <trip depart="122.58" departLane="best" departSpeed="max" from="1886109" id="truck227" to="290508118" type="truck_petrol"/>
 <trip depart="123.12" departLane="best" from="497253420#0" id="truck228" to="3991431#0" type="truck_petrol"/>
 <trip depart="123.66" departLane="best" from="-793601875" id="truck229" to="-1033894288#7" type="truck_petrol"/>
 <trip depart="124.20" departLane="best" departSpeed="max" from="-668646730#5" id="truck230" to="37978799#0" type="truck_petrol"/>
 <trip depart="124.74" departLane="best" from="-946767471#2" id="truck231" to="367145526#1" type="truck_petrol"/>
 <trip depart="125.28" departLane="best" from="1810987#0" id="truck232" to="237353963#2" type="truck_hybrid"/>
 <trip depart="125.82" departLane="best" departSpeed="max" from="-285594217#5" id="truck233" to="-364428600" type="truck_petrol"/>
 <trip depart="126.36" departLane="best" from="1057215862#0" id="truck234" to="-130200215#1" type="truck_hybrid"/>
 <trip depart="126.90" departLane="best" from="-536177367#2" id="truck235" to="27604498" type="truck_petrol"/>
 <trip depart="127.44" departLane="best" from="-83348641#5" id="truck236" to="-27222514" type="truck_petrol"/>
 <trip depart="127.98" departLane="best" departSpeed="max" from="130200215#0" id="truck237" to="-222795404#15" type="truck_hybrid"/>
 <trip depart="128.52" departLane="best" from="237103942#0" id="truck238" to="-125164983" type="truck_hybrid"/>
 <trip depart="129.06" departLane="best" from="-8122732#2" id="truck239" to="1987817" type="truck_petrol"/>
 <trip depart="129.60" departLane="best" from="-114788529#1" id="truck240" to="26182975#0" type="truck_petrol"/>
 <trip depart="130.14" departLane="best" departSpeed="max" from="-1966241#2" id="truck241" to="162945594#9" type="truck_hybrid"/>
 <trip depart="130.68" departLane="best" from="-157996444#1" id="truck242" to="104704314#0" type="truck_petrol"/>
 <trip depart="131.22" departLane="best" from="-2799049#1" id="truck243" to="-789070481" type="truck_hybrid"/>
 <trip depart="131.76" departLane="best" from="365163234" id="truck244" to="104704314#0" type="truck_hybrid"/>
 <trip depart="132.30" departLane="best" from="360157610#5" id="truck245" to="49002141#18" type="truck_petrol"/>
 <trip depart="132.84" departLane="best" from="-3648986#5" id="truck246" to="-1803905" type="truck_petrol"/>
 <trip depart="133.38" departLane="best" from="-107625809#1" id="truck247" to="1881817#2" type="truck_petrol"/>
 <trip depart="133.92" departLane="best" from="996252368" id="truck248" to="-8141685#1" type="truck_petrol"/>
 <trip depart="134.46" departLane="best" from="24710263" id="truck249" to="417570102#0" type="truck_petrol"/>
 <trip depart="135.00" departLane="best" from="24815309#0" id="truck250" to="380312670#1" type="truck_petrol"/>