<?xml version="1.0" encoding="utf-8"?>
<!-- generated on 2022-11-23 10:46:32.629942 by osmWebWizard.py UNKNOWN
<configuration>
    <allow-fringe.min-length value="1000.0"/>
    <end value="3600"/>
    <fringe-factor value="5.0"/>
    <fringe-start-attributes value="departSpeed=&quot;max&quot;"/>
    <lanes value="True"/>
    <min-distance value="300.0"/>
    <net-file value="/Users/hjalte/Documents/DTU/Model Based System Engineering/SUMO/2022-11-23-10-45-40/osm.net.xml"/>
    <period value="0.3600061921065054"/>
    <route-file value="/Users/hjalte/Documents/DTU/Model Based System Engineering/SUMO/2022-11-23-10-45-40/osm.passenger.rou.xml"/>
    <trip-attributes value="departLane=&quot;best&quot;"/>
    <output-trip-file value="/Users/hjalte/Documents/DTU/Model Based System Engineering/SUMO/2022-11-23-10-45-40/osm.passenger.trips.xml"/>
    <prefix value="veh"/>
    <validate value="True"/>
    <vehicle-class value="passenger"/>
</configuration>
-->
<!-- generated on 2022-11-23 10:46:23 by Eclipse SUMO duarouter Version 1.14.1
<configuration xmlns:xsi="http://www.w3.org/2001/XMLSchema-instance" xsi:noNamespaceSchemaLocation="http://sumo.dlr.de/xsd/duarouterConfiguration.xsd">

    <input>
        <net-file value="/Users/hjalte/Documents/DTU/Model%20Based%20System%20Engineering/SUMO/2022-11-23-10-45-40/osm.net.xml"/>
        <route-files value="/Users/hjalte/Documents/DTU/Model%20Based%20System%20Engineering/SUMO/2022-11-23-10-45-40/osm.passenger.trips.xml"/>
    </input>

    <output>
        <output-file value="/Users/hjalte/Documents/DTU/Model%20Based%20System%20Engineering/SUMO/2022-11-23-10-45-40/osm.passenger.trips.xml.tmp"/>
        <alternatives-output value="NUL"/>
        <write-trips value="true"/>
    </output>

    <time>
        <begin value="0"/>
        <end value="3600"/>
    </time>

    <report>
        <no-warnings value="true"/>
        <ignore-errors value="true"/>
        <no-step-log value="true"/>
    </report>

</configuration>
-->
<routes xmlns:xsi="http://www.w3.org/2001/XMLSchema-instance" xsi:noNamespaceSchemaLocation="http://sumo.dlr.de/xsd/routes_file.xsd">
 <vType id="veh_passenger" vClass="passenger"/>
 <trip depart="0.00" departLane="best" from="27226029#0" id="veh0" to="-128254060" type="veh_diesel"/>
 <trip depart="0.36" departLane="best" from="-4833264" id="veh1" to="-4314729" type="veh_diesel"/>
 <trip depart="0.72" departLane="best" from="38702782#0" id="veh2" to="330915991#0" type="veh_petrol"/>
 <trip depart="1.08" departLane="best" from="679005634" id="veh3" to="-1880991#1" type="veh_hybrid"/>
 <trip depart="1.80" departLane="best" from="-3609429#6" id="veh5" to="1907147#0" type="veh_diesel"/>
 <trip depart="2.16" departLane="best" departSpeed="max" from="-123206851#4" id="veh6" to="-3665654#2" type="veh_hybrid"/>
 <trip depart="2.52" departLane="best" from="27336106#1" id="veh7" to="237103934#0" type="veh_petrol"/>
 <trip depart="2.88" departLane="best" departSpeed="max" from="-3648978#2" id="veh8" to="25564875" type="veh_petrol"/>
 <trip depart="3.24" departLane="best" from="4850911#0" id="veh9" to="-104704315#1" type="veh_petrol"/>
 <trip depart="3.60" departLane="best" departSpeed="max" from="4778341#0" id="veh10" to="3648986#0" type="veh_ev"/>
 <trip depart="3.96" departLane="best" departSpeed="max" from="-79699826#1" id="veh11" to="-27360041" type="veh_petrol"/>
 <trip depart="4.32" departLane="best" from="8120341#3" id="veh12" to="104704313#1" type="veh_petrol"/>
 <trip depart="4.68" departLane="best" from="-1880652#0" id="veh13" to="-1881701#2" type="veh_petrol"/>
 <trip depart="5.04" departLane="best" from="502723027#0" id="veh14" to="26284016#0" type="veh_petrol"/>
 <trip depart="5.76" departLane="best" from="1888721#4" id="veh16" to="81644957#0" type="veh_petrol"/>
 <trip depart="6.12" departLane="best" from="1022588989#3" id="veh17" to="237204097#0" type="veh_hybrid"/>
 <trip depart="6.48" departLane="best" from="497002200#0" id="veh18" to="27226008#2" type="veh_petrol"/>
 <trip depart="6.84" departLane="best" departSpeed="max" from="35160333#0" id="veh19" to="-159136165#0" type="veh_diesel"/>
 <trip depart="7.20" departLane="best" departSpeed="max" from="-3665652#4" id="veh20" to="-788543005#1" type="veh_petrol"/>
 <trip depart="7.56" departLane="best" from="-1803908#3" id="veh21" to="-4778301#0" type="veh_petrol"/>
 <trip depart="7.92" departLane="best" from="-1881367#4" id="veh22" to="-745633510#2" type="veh_petrol"/>
 <trip depart="8.28" departLane="best" from="27222525" id="veh23" to="1096146332#0" type="veh_diesel"/>
 <trip depart="8.64" departLane="best" from="-960144107" id="veh24" to="-3992833#5" type="veh_petrol"/>
 <trip depart="9.00" departLane="best" departSpeed="max" from="-4369061#3" id="veh25" to="776583736#1" type="veh_petrol"/>
 <trip depart="9.36" departLane="best" departSpeed="max" from="27284963#0" id="veh26" to="27201304#0" type="veh_hybrid"/>
 <trip depart="9.72" departLane="best" from="-27037619#5" id="veh27" to="3992837#3" type="veh_petrol"/>
 <trip depart="10.08" departLane="best" departSpeed="max" from="-25808352" id="veh28" to="128453982#0" type="veh_petrol"/>
 <trip depart="10.44" departLane="best" from="904466735" id="veh29" to="2799057#2" type="veh_petrol"/>
 <trip depart="10.80" departLane="best" from="212506775" id="veh30" to="357113628#8" type="veh_hybrid"/>
 <trip depart="11.16" departLane="best" from="502199404#0" id="veh31" to="44082198#0" type="veh_petrol"/>
 <trip depart="11.52" departLane="best" from="-367504021#2" id="veh32" to="-144425341#9" type="veh_hybrid"/>
 <trip depart="11.88" departLane="best" from="-683577503#1" id="veh33" to="-653414933#2" type="veh_petrol"/>
 <trip depart="12.24" departLane="best" from="-340215713#2" id="veh34" to="788195863#0" type="veh_petrol"/>
 <trip depart="12.60" departLane="best" from="58153703#9" id="veh35" to="-865419990#1" type="veh_hybrid"/>
 <trip depart="12.96" departLane="best" departSpeed="max" from="27360368" id="veh36" to="150193682#0" type="veh_diesel"/>
 <trip depart="13.32" departLane="best" departSpeed="max" from="739172164#0" id="veh37" to="1803902#0" type="veh_hybrid"/>
 <trip depart="13.68" departLane="best" from="-4349540" id="veh38" to="-497222944" type="veh_diesel"/>
 <trip depart="14.04" departLane="best" from="225964063#0" id="veh39" to="-58153694#0" type="veh_petrol"/>
 <trip depart="14.40" departLane="best" from="237236398#0" id="veh40" to="689364520" type="veh_ev"/>
 <trip depart="14.76" departLane="best" from="1075746755#0" id="veh41" to="-42341349" type="veh_petrol"/>
 <trip depart="15.12" departLane="best" from="960137697#0" id="veh42" to="1912204" type="veh_diesel"/>
 <trip depart="15.48" departLane="best" from="-1880642#3" id="veh43" to="-159303937#8" type="veh_petrol"/>
 <trip depart="15.84" departLane="best" from="-1881916" id="veh44" to="27283421#0" type="veh_diesel"/>
 <trip depart="16.20" departLane="best" from="455570510#0" id="veh45" to="162814704#0" type="veh_petrol"/>
 <trip depart="16.56" departLane="best" from="-168907414#5" id="veh46" to="129370601#0" type="veh_diesel"/>
 <trip depart="16.92" departLane="best" from="934325967" id="veh47" to="210620012#9" type="veh_petrol"/>
 <trip depart="17.28" departLane="best" from="814068067#0" id="veh48" to="56247601#2" type="veh_petrol"/>
 <trip depart="17.64" departLane="best" from="-105561357#2" id="veh49" to="3988196" type="veh_petrol"/>
 <trip depart="18.00" departLane="best" departSpeed="max" from="30334021#0" id="veh50" to="23177167#0" type="veh_hybrid"/>
 <trip depart="18.36" departLane="best" departSpeed="max" from="-4369061#3" id="veh51" to="2799542#0" type="veh_diesel"/>
 <trip depart="18.72" departLane="best" from="-1888719#3" id="veh52" to="168149691#0" type="veh_petrol"/>
 <trip depart="19.08" departLane="best" departSpeed="max" from="159303937#0" id="veh53" to="800726177#2" type="veh_diesel"/>
 <trip depart="19.44" departLane="best" departSpeed="max" from="58153703#0" id="veh54" to="-58153696#3" type="veh_diesel"/>
 <trip depart="19.80" departLane="best" from="1803896" id="veh55" to="-30791623#0" type="veh_petrol"/>
 <trip depart="20.16" departLane="best" departSpeed="max" from="736254956#0" id="veh56" to="580494818" type="veh_petrol"/>
 <trip depart="20.52" departLane="best" from="-543907339#5" id="veh57" to="2799049#3" type="veh_hybrid"/>
 <trip depart="20.88" departLane="best" from="24823745#0" id="veh58" to="-27283421#1" type="veh_hybrid"/>
 <trip depart="21.24" departLane="best" from="420039025" id="veh59" to="234571652#0" type="veh_petrol"/>
 <trip depart="21.60" departLane="best" departSpeed="max" from="4349531#0" id="veh60" to="218228183#0" type="veh_petrol"/>
 <trip depart="21.96" departLane="best" departSpeed="max" from="-1015943968" id="veh61" to="-975382206#1" type="veh_ev"/>
 <trip depart="22.32" departLane="best" from="-108849042" id="veh62" to="74865047#2" type="veh_petrol"/>
 <trip depart="22.68" departLane="best" from="58733608#3" id="veh63" to="502170738#1" type="veh_petrol"/>
 <trip depart="23.04" departLane="best" departSpeed="max" from="-60850115#3" id="veh64" to="-167253698" type="veh_diesel"/>
 <trip depart="23.40" departLane="best" departSpeed="max" from="58700472#0" id="veh65" to="793529328" type="veh_petrol"/>
 <trip depart="23.76" departLane="best" departSpeed="max" from="-1822848#2" id="veh66" to="1881256" type="veh_petrol"/>
 <trip depart="24.12" departLane="best" departSpeed="max" from="-1718730#3" id="veh67" to="4235317" type="veh_petrol"/>
 <trip depart="24.48" departLane="best" from="4212193#0" id="veh68" to="-2400226#1" type="veh_petrol"/>
 <trip depart="24.84" departLane="best" from="165285653#3" id="veh69" to="237193332" type="veh_diesel"/>
 <trip depart="25.20" departLane="best" from="-4349541#7" id="veh70" to="58153703#4" type="veh_hybrid"/>
 <trip depart="25.56" departLane="best" from="129990577" id="veh71" to="-3993672#1" type="veh_petrol"/>
 <trip depart="25.92" departLane="best" from="1906289#0" id="veh72" to="3993319#0" type="veh_petrol"/>
 <trip depart="26.28" departLane="best" departSpeed="max" from="-30189718" id="veh73" to="-8296993#3" type="veh_ev"/>
 <trip depart="26.64" departLane="best" from="929412328#0" id="veh74" to="28612120#21" type="veh_hybrid"/>
 <trip depart="27.00" departLane="best" departSpeed="max" from="150169208#0" id="veh75" to="1987818" type="veh_petrol"/>
 <trip depart="27.72" departLane="best" from="-794686930#12" id="veh77" to="2523503#1" type="veh_petrol"/>
 <trip depart="28.08" departLane="best" from="-37394" id="veh78" to="-4235319#1" type="veh_diesel"/>
 <trip depart="28.44" departLane="best" from="-1751859#6" id="veh79" to="27360029#1" type="veh_hybrid"/>
 <trip depart="28.80" departLane="best" from="-367146203#1" id="veh80" to="699755431" type="veh_diesel"/>
 <trip depart="29.16" departLane="best" departSpeed="max" from="543907339#0" id="veh81" to="-1796624#4" type="veh_hybrid"/>
 <trip depart="29.52" departLane="best" departSpeed="max" from="-3991358#1" id="veh82" to="305868535#0" type="veh_petrol"/>
 <trip depart="29.88" departLane="best" from="-356696510#1" id="veh83" to="-24626898#1" type="veh_diesel"/>
 <trip depart="30.24" departLane="best" from="769874903#0" id="veh84" to="241095252#1" type="veh_petrol"/>
 <trip depart="30.60" departLane="best" from="164042529#1" id="veh85" to="455570521#1" type="veh_petrol"/>
 <trip depart="31.32" departLane="best" departSpeed="max" from="-1881156#3" id="veh87" to="165595725#1" type="veh_hybrid"/>
 <trip depart="31.68" departLane="best" departSpeed="max" from="130200215#0" id="veh88" to="182398600#5" type="veh_hybrid"/>
 <trip depart="32.04" departLane="best" from="367471405#0" id="veh89" to="317083964" type="veh_diesel"/>
 <trip depart="32.40" departLane="best" from="87325162#2" id="veh90" to="-1881920#0" type="veh_ev"/>
 <trip depart="32.76" departLane="best" from="1081381423#0" id="veh91" to="1051576304" type="veh_petrol"/>
 <trip depart="33.12" departLane="best" from="547868302" id="veh92" to="-502170738#0" type="veh_petrol"/>
 <trip depart="33.48" departLane="best" departSpeed="max" from="-2800201#5" id="veh93" to="1755184#0" type="veh_hybrid"/>
 <trip depart="34.20" departLane="best" from="-4089280#1" id="veh95" to="742354671" type="veh_diesel"/>
 <trip depart="34.56" departLane="best" departSpeed="max" from="152853466#0" id="veh96" to="56322586#0" type="veh_petrol"/>
 <trip depart="34.92" departLane="best" from="201983347#0" id="veh97" to="-161858521#5" type="veh_hybrid"/>
 <trip depart="35.28" departLane="best" from="975382208#0" id="veh98" to="502199404#0" type="veh_diesel"/>
 <trip depart="35.64" departLane="best" from="8123059#7" id="veh99" to="745633509#0" type="veh_diesel"/>
 <trip depart="36.00" departLane="best" departSpeed="max" from="503714827#0" id="veh100" to="-283000862#1" type="veh_hybrid"/>
 <trip depart="36.36" departLane="best" from="1702966#2" id="veh101" to="-4057607#1" type="veh_petrol"/>
 <trip depart="36.72" departLane="best" from="10771099" id="veh102" to="-168117394#2" type="veh_diesel"/>
 <trip depart="37.08" departLane="best" departSpeed="max" from="102346726" id="veh103" to="87341549#2" type="veh_petrol"/>
 <trip depart="37.44" departLane="best" departSpeed="max" from="-4349664" id="veh104" to="455570511" type="veh_petrol"/>
 <trip depart="37.80" departLane="best" departSpeed="max" from="160084558#0" id="veh105" to="162854166#1" type="veh_diesel"/>
 <trip depart="38.16" departLane="best" from="8120341#7" id="veh106" to="931333090#3" type="veh_petrol"/>
 <trip depart="38.52" departLane="best" from="210620012#4" id="veh107" to="388070331#0" type="veh_diesel"/>
 <trip depart="38.88" departLane="best" from="-24844953#1" id="veh108" to="-796428881" type="veh_hybrid"/>
 <trip depart="39.24" departLane="best" from="8123056#0" id="veh109" to="24815309#0" type="veh_diesel"/>
 <trip depart="39.60" departLane="best" from="1911069" id="veh110" to="419983495" type="veh_hybrid"/>
 <trip depart="39.96" departLane="best" departSpeed="max" from="-164931502" id="veh111" to="25102265#0" type="veh_diesel"/>
 <trip depart="40.32" departLane="best" from="1810987#6" id="veh112" to="536177367#0" type="veh_petrol"/>
 <trip depart="40.68" departLane="best" from="-2522292#2" id="veh113" to="8122619#0" type="veh_petrol"/>
 <trip depart="41.04" departLane="best" from="-1810985" id="veh114" to="-35155069#4" type="veh_petrol"/>
 <trip depart="41.40" departLane="best" from="2384072#0" id="veh115" to="329087861" type="veh_petrol"/>
 <trip depart="41.76" departLane="best" from="-39637246#2" id="veh116" to="-237193332" type="veh_petrol"/>
 <trip depart="42.12" departLane="best" from="672675011#0" id="veh117" to="-497213246#2" type="veh_ev"/>
 <trip depart="42.48" departLane="best" departSpeed="max" from="23815186" id="veh118" to="27226027#1" type="veh_petrol"/>
 <trip depart="42.84" departLane="best" from="127496109#0" id="veh119" to="24980289#0" type="veh_petrol"/>
 <trip depart="43.20" departLane="best" from="1881214" id="veh120" to="772456053#0" type="veh_hybrid"/>
 <trip depart="43.56" departLane="best" from="-305585317#1" id="veh121" to="38496194#0" type="veh_ev"/>
 <trip depart="44.28" departLane="best" from="289577156#3" id="veh123" to="-8121739#0" type="veh_petrol"/>
 <trip depart="44.64" departLane="best" from="-69685066" id="veh124" to="420044236#0" type="veh_petrol"/>
 <trip depart="45.00" departLane="best" from="-1757749#3" id="veh125" to="1803898#3" type="veh_petrol"/>
 <trip depart="45.36" departLane="best" from="970116245#1" id="veh126" to="934325967" type="veh_hybrid"/>
 <trip depart="45.72" departLane="best" from="-177035005#1" id="veh127" to="-3994937" type="veh_petrol"/>
 <trip depart="46.08" departLane="best" departSpeed="max" from="-4349664" id="veh128" to="76026952#0" type="veh_petrol"/>
 <trip depart="46.44" departLane="best" from="597020325#0" id="veh129" to="620200545#0" type="veh_petrol"/>
 <trip depart="46.80" departLane="best" departSpeed="max" from="-934385840" id="veh130" to="-27360364" type="veh_diesel"/>
 <trip depart="47.16" departLane="best" from="497246307" id="veh131" to="3663987" type="veh_petrol"/>
 <trip depart="47.52" departLane="best" from="252247060#2" id="veh132" to="87724803#1" type="veh_petrol"/>
 <trip depart="47.88" departLane="best" departSpeed="max" from="27360360" id="veh133" to="-1055441160#1" type="veh_ev"/>
 <trip depart="48.24" departLane="best" from="495955845#0" id="veh134" to="-8120291" type="veh_petrol"/>
 <trip depart="48.60" departLane="best" from="2800205#0" id="veh135" to="783726825" type="veh_ev"/>
 <trip depart="48.96" departLane="best" from="-22979229#4" id="veh136" to="-233747071#7" type="veh_petrol"/>
 <trip depart="49.32" departLane="best" departSpeed="max" from="-1881815#3" id="veh137" to="237214019#0" type="veh_petrol"/>
 <trip depart="49.68" departLane="best" departSpeed="max" from="-4778341#1" id="veh138" to="26322956#1" type="veh_diesel"/>
 <trip depart="50.04" departLane="best" from="363637505#2" id="veh139" to="-388070331#3" type="veh_diesel"/>
 <trip depart="50.40" departLane="best" from="27220173#2" id="veh140" to="-58153703#11" type="veh_petrol"/>
 <trip depart="50.76" departLane="best" from="1718726#0" id="veh141" to="699755431" type="veh_petrol"/>
 <trip depart="51.12" departLane="best" from="502425228#0" id="veh142" to="-1881263" type="veh_ev"/>
 <trip depart="51.48" departLane="best" departSpeed="max" from="130200215#0" id="veh143" to="-742302328" type="veh_hybrid"/>
 <trip depart="51.84" departLane="best" from="-1021355714#1" id="veh144" to="4369062#0" type="veh_petrol"/>
 <trip depart="52.20" departLane="best" from="27225990#1" id="veh145" to="-57984013" type="veh_petrol"/>
 <trip depart="52.92" departLane="best" from="140412992#0" id="veh147" to="-1062661043#0" type="veh_hybrid"/>
 <trip depart="53.28" departLane="best" from="-1792959#1" id="veh148" to="654821502" type="veh_petrol"/>
 <trip depart="53.64" departLane="best" from="699755413" id="veh149" to="237106583#0" type="veh_petrol"/>
 <trip depart="54.00" departLane="best" from="497252837#0" id="veh150" to="24844953#2" type="veh_petrol"/>
 <trip depart="54.36" departLane="best" departSpeed="max" from="-2400147" id="veh151" to="-23814995#1" type="veh_petrol"/>
 <trip depart="54.72" departLane="best" departSpeed="max" from="-60929929#1" id="veh152" to="689364552" type="veh_petrol"/>
 <trip depart="55.08" departLane="best" from="455570562#0" id="veh153" to="56247601#11" type="veh_diesel"/>
 <trip depart="55.44" departLane="best" from="689222892" id="veh154" to="-3993170#1" type="veh_petrol"/>
 <trip depart="55.80" departLane="best" from="-406836558#0" id="veh155" to="-190670389#0" type="veh_petrol"/>
 <trip depart="56.16" departLane="best" from="4369056#1" id="veh156" to="658007044#0" type="veh_petrol"/>
 <trip depart="56.52" departLane="best" departSpeed="max" from="1091239425#0" id="veh157" to="27226081" type="veh_ev"/>
 <trip depart="56.88" departLane="best" from="-24823743#4" id="veh158" to="751162442#0" type="veh_hybrid"/>
 <trip depart="57.24" departLane="best" from="555575817" id="veh159" to="83348744#4" type="veh_diesel"/>
 <trip depart="57.60" departLane="best" departSpeed="max" from="48952321" id="veh160" to="631933351" type="veh_hybrid"/>
 <trip depart="57.96" departLane="best" from="-11566108#1" id="veh161" to="4089280#0" type="veh_petrol"/>
 <trip depart="58.32" departLane="best" from="-788234433#2" id="veh162" to="751406914#1" type="veh_petrol"/>
 <trip depart="58.68" departLane="best" from="464798406#1" id="veh163" to="571034827" type="veh_petrol"/>
 <trip depart="59.04" departLane="best" departSpeed="max" from="48952321" id="veh164" to="-60850112#4" type="veh_hybrid"/>
 <trip depart="59.40" departLane="best" from="446975470" id="veh165" to="-201994909#1" type="veh_petrol"/>
 <trip depart="59.76" departLane="best" from="577311347#2" id="veh166" to="549231467#2" type="veh_hybrid"/>
 <trip depart="60.12" departLane="best" from="-3648986#5" id="veh167" to="496751396#0" type="veh_hybrid"/>
 <trip depart="60.48" departLane="best" from="161848622#0" id="veh168" to="-8122789#4" type="veh_diesel"/>
 <trip depart="60.84" departLane="best" from="455570558#0" id="veh169" to="-4371304#0" type="veh_hybrid"/>
 <trip depart="61.20" departLane="best" departSpeed="max" from="-113539897#2" id="veh170" to="-3643787#2" type="veh_ev"/>
 <trip depart="61.56" departLane="best" from="-78412354#1" id="veh171" to="571034828" type="veh_petrol"/>
 <trip depart="61.92" departLane="best" departSpeed="max" from="8122870#0" id="veh172" to="-746422998" type="veh_hybrid"/>
 <trip depart="62.64" departLane="best" from="86443267#0" id="veh174" to="230933568#1" type="veh_hybrid"/>
 <trip depart="63.00" departLane="best" from="783687956#5" id="veh175" to="-233747071#6" type="veh_petrol"/>
 <trip depart="63.36" departLane="best" from="8133435#0" id="veh176" to="-30791623#0" type="veh_petrol"/>
 <trip depart="63.72" departLane="best" from="8122619#1" id="veh177" to="-58700472#1" type="veh_petrol"/>
 <trip depart="64.08" departLane="best" departSpeed="max" from="-1881823" id="veh178" to="168149691#0" type="veh_ev"/>
 <trip depart="64.44" departLane="best" departSpeed="max" from="367146203#0" id="veh179" to="-86348917" type="veh_petrol"/>
 <trip depart="64.80" departLane="best" from="24815309#0" id="veh180" to="1929864" type="veh_diesel"/>
 <trip depart="65.16" departLane="best" from="1052753809" id="veh181" to="24612430" type="veh_hybrid"/>
 <trip depart="65.52" departLane="best" from="-4212196#4" id="veh182" to="367476299#0" type="veh_ev"/>
 <trip depart="65.88" departLane="best" from="-1021148115#3" id="veh183" to="742670363#0" type="veh_diesel"/>
 <trip depart="66.24" departLane="best" departSpeed="max" from="1905727#0" id="veh184" to="39506390" type="veh_petrol"/>
 <trip depart="66.60" departLane="best" from="3991410" id="veh185" to="31119158#0" type="veh_hybrid"/>
 <trip depart="66.96" departLane="best" from="-893729920#0" id="veh186" to="-1792953#1" type="veh_petrol"/>
 <trip depart="67.32" departLane="best" from="2800692#0" id="veh187" to="1021355714#2" type="veh_diesel"/>
 <trip depart="67.68" departLane="best" departSpeed="max" from="-679042812#4" id="veh188" to="516912933" type="veh_petrol"/>
 <trip depart="68.04" departLane="best" departSpeed="max" from="364428600" id="veh189" to="-8122386#2" type="veh_petrol"/>
 <trip depart="68.40" departLane="best" from="-658599075" id="veh190" to="160328977#0" type="veh_petrol"/>
 <trip depart="68.76" departLane="best" from="1080725916" id="veh191" to="-79519077#5" type="veh_petrol"/>
 <trip depart="69.12" departLane="best" from="-201994910#2" id="veh192" to="162094359#0" type="veh_petrol"/>
 <trip depart="69.48" departLane="best" from="784043644" id="veh193" to="334300303#3" type="veh_petrol"/>
 <trip depart="69.84" departLane="best" from="69685847#4" id="veh194" to="27222527" type="veh_diesel"/>
 <trip depart="70.20" departLane="best" departSpeed="max" from="-566994043#1" id="veh195" to="237111840#0" type="veh_diesel"/>
 <trip depart="70.56" departLane="best" departSpeed="max" from="-1015943968" id="veh196" to="-78804876" type="veh_petrol"/>
 <trip depart="71.28" departLane="best" departSpeed="max" from="27360364" id="veh198" to="1820405#1" type="veh_petrol"/>
 <trip depart="71.64" departLane="best" departSpeed="max" from="152178107" id="veh199" to="-4057607#1" type="veh_ev"/>
 <trip depart="72.00" departLane="best" from="164695301#2" id="veh200" to="69685847#2" type="veh_petrol"/>
 <trip depart="72.36" departLane="best" from="455570562#0" id="veh201" to="-293285536#1" type="veh_diesel"/>
 <trip depart="72.72" departLane="best" from="-1822845#6" id="veh202" to="1969451" type="veh_petrol"/>
 <trip depart="73.08" departLane="best" from="27205520#0" id="veh203" to="103524902#0" type="veh_ev"/>
 <trip depart="73.44" departLane="best" from="496181695" id="veh204" to="420039034" type="veh_hybrid"/>
 <trip depart="74.16" departLane="best" departSpeed="max" from="-29642#2" id="veh206" to="-127496087" type="veh_hybrid"/>
 <trip depart="74.52" departLane="best" departSpeed="max" from="-3993542#5" id="veh207" to="1880648#1" type="veh_diesel"/>
 <trip depart="74.88" departLane="best" from="504364373" id="veh208" to="-1803898#2" type="veh_petrol"/>
 <trip depart="75.24" departLane="best" from="114787654#0" id="veh209" to="27336103" type="veh_hybrid"/>
 <trip depart="75.60" departLane="best" from="-28612121#12" id="veh210" to="3648977#0" type="veh_ev"/>
 <trip depart="75.96" departLane="best" departSpeed="max" from="178966619#0" id="veh211" to="-496981127#4" type="veh_petrol"/>
 <trip depart="76.32" departLane="best" departSpeed="max" from="27360372" id="veh212" to="-1039344874" type="veh_ev"/>
 <trip depart="76.68" departLane="best" from="411057612#0" id="veh213" to="4369053#0" type="veh_diesel"/>
 <trip depart="77.04" departLane="best" from="-1881812#0" id="veh214" to="163803293#3" type="veh_diesel"/>
 <trip depart="77.40" departLane="best" from="-27232325#1" id="veh215" to="8122539#2" type="veh_diesel"/>
 <trip depart="77.76" departLane="best" from="1880941#0" id="veh216" to="-161858521#1" type="veh_petrol"/>
 <trip depart="78.12" departLane="best" from="-4057607#1" id="veh217" to="516981911" type="veh_petrol"/>
 <trip depart="78.48" departLane="best" from="161635688#1" id="veh218" to="49002141#14" type="veh_petrol"/>
 <trip depart="78.84" departLane="best" from="285594217#0" id="veh219" to="888734659" type="veh_petrol"/>
 <trip depart="79.20" departLane="best" from="2400226#0" id="veh220" to="794686933" type="veh_ev"/>
 <trip depart="79.56" departLane="best" from="678991575#0" id="veh221" to="27206694#0" type="veh_diesel"/>
 <trip depart="79.92" departLane="best" departSpeed="max" from="364393486#0" id="veh222" to="190670388#5" type="veh_petrol"/>
 <trip depart="80.28" departLane="best" from="497199242#0" id="veh223" to="237111840#0" type="veh_hybrid"/>
 <trip depart="80.64" departLane="best" from="683533775" id="veh224" to="4197804" type="veh_petrol"/>
 <trip depart="81.00" departLane="best" from="164933750#0" id="veh225" to="-56247601#4" type="veh_diesel"/>
 <trip depart="81.36" departLane="best" from="-3994929#1" id="veh226" to="27694005#0" type="veh_petrol"/>
 <trip depart="81.72" departLane="best" from="4212133#0" id="veh227" to="1989937#1" type="veh_ev"/>
 <trip depart="82.44" departLane="best" from="-1803214#3" id="veh229" to="-784348043" type="veh_petrol"/>
 <trip depart="82.80" departLane="best" from="-4778320" id="veh230" to="-906820176#4" type="veh_hybrid"/>
 <trip depart="83.16" departLane="best" from="190670388#0" id="veh231" to="-25646013#0" type="veh_petrol"/>
 <trip depart="83.52" departLane="best" from="-37664770#1" id="veh232" to="363363572#3" type="veh_diesel"/>
 <trip depart="83.88" departLane="best" departSpeed="max" from="3542462#0" id="veh233" to="-1714609#1" type="veh_petrol"/>
 <trip depart="84.24" departLane="best" from="1094548122#0" id="veh234" to="237092547#0" type="veh_petrol"/>
 <trip depart="84.96" departLane="best" from="127497088#1" id="veh236" to="699755429" type="veh_petrol"/>
 <trip depart="85.32" departLane="best" from="237232189#0" id="veh237" to="364793653#0" type="veh_hybrid"/>
 <trip depart="85.68" departLane="best" from="536177365#0" id="veh238" to="431349799#1" type="veh_ev"/>
 <trip depart="86.04" departLane="best" from="1027176347" id="veh239" to="-1044528743#0" type="veh_ev"/>
 <trip depart="86.40" departLane="best" departSpeed="max" from="-8123043" id="veh240" to="4212133#1" type="veh_petrol"/>
 <trip depart="86.76" departLane="best" from="514327559#4" id="veh241" to="800726177#0" type="veh_petrol"/>
 <trip depart="87.12" departLane="best" from="127496109#0" id="veh242" to="419983470" type="veh_ev"/>
 <trip depart="87.48" departLane="best" from="1931866" id="veh243" to="262710539#0" type="veh_petrol"/>
 <trip depart="88.20" departLane="best" departSpeed="max" from="148726504#0" id="veh245" to="-143330820#3" type="veh_petrol"/>
 <trip depart="88.56" departLane="best" from="-793529334#3" id="veh246" to="339615826" type="veh_hybrid"/>
 <trip depart="88.92" departLane="best" departSpeed="max" from="108233935#0" id="veh247" to="-2800689#5" type="veh_hybrid"/>
 <trip depart="89.28" departLane="best" from="162095267" id="veh248" to="-23815186" type="veh_diesel"/>
 <trip depart="89.64" departLane="best" from="262659497#0" id="veh249" to="-131096743#2" type="veh_petrol"/>
 <trip depart="90.00" departLane="best" from="1067190733#0" id="veh250" to="23790374#1" type="veh_hybrid"/>
 <trip depart="90.36" departLane="best" from="-127496087" id="veh251" to="2800204" type="veh_ev"/>
 <trip depart="90.72" departLane="best" from="-233747071#2" id="veh252" to="1810998#2" type="veh_petrol"/>
 <trip depart="91.08" departLane="best" from="-161858521#2" id="veh253" to="128451974" type="veh_petrol"/>
 <trip depart="91.44" departLane="best" from="-342891530#0" id="veh254" to="1017666527#1" type="veh_petrol"/>
 <trip depart="91.80" departLane="best" from="419993038#0" id="veh255" to="128451974" type="veh_petrol"/>
 <trip depart="92.16" departLane="best" departSpeed="max" from="412767590#0" id="veh256" to="502186116#0" type="veh_ev"/>
 <trip depart="92.52" departLane="best" departSpeed="max" from="-41845959" id="veh257" to="-1867084" type="veh_petrol"/>
 <trip depart="92.88" departLane="best" from="-108849042" id="veh258" to="234571652#0" type="veh_diesel"/>
 <trip depart="93.60" departLane="best" from="27349206" id="veh260" to="448963780#0" type="veh_hybrid"/>
 <trip depart="93.96" departLane="best" departSpeed="max" from="27360038" id="veh261" to="4214165#0" type="veh_petrol"/>
 <trip depart="94.32" departLane="best" from="793529340" id="veh262" to="-3666043#1" type="veh_ev"/>
 <trip depart="94.68" departLane="best" departSpeed="max" from="-1103275934" id="veh263" to="-27283284#6" type="veh_hybrid"/>
 <trip depart="95.04" departLane="best" from="-1993002#1" id="veh264" to="30726125#0" type="veh_petrol"/>