<?xml version="1.0" encoding="utf-8"?>
<!-- generated on 2022-10-28 10:53:28.833274 by osmWebWizard.py UNKNOWN
<configuration>
    <end value="3600"/>
    <fringe-factor value="5.0"/>
    <fringe-start-attributes value="departSpeed=&quot;max&quot;"/>
    <min-distance value="600.0"/>
    <net-file value="/Users/hjalte/2022-10-28-10-53-12/osm.net.xml"/>
    <period value="3.313192070603685"/>
    <route-file value="/Users/hjalte/2022-10-28-10-53-12/osm.truck.rou.xml"/>
    <trip-attributes value="departLane=&quot;best&quot;"/>
    <output-trip-file value="/Users/hjalte/2022-10-28-10-53-12/osm.truck.trips.xml"/>
    <prefix value="truck"/>
    <validate value="True"/>
    <vclass value="truck"/>
    <vehicle-class value="truck"/>
</configuration>
-->
<!-- generated on 2022-10-28 10:53:28 by Eclipse SUMO duarouter Version 1.14.1
<configuration xmlns:xsi="http://www.w3.org/2001/XMLSchema-instance" xsi:noNamespaceSchemaLocation="http://sumo.dlr.de/xsd/duarouterConfiguration.xsd">

    <input>
        <net-file value="/Users/hjalte/2022-10-28-10-53-12/osm.net.xml"/>
        <route-files value="/Users/hjalte/2022-10-28-10-53-12/osm.truck.trips.xml"/>
    </input>

    <output>
        <output-file value="/Users/hjalte/2022-10-28-10-53-12/osm.truck.trips.xml.tmp"/>
        <alternatives-output value="NUL"/>
        <write-trips value="true"/>
    </output>

    <time>
        <begin value="0"/>
        <end value="3600"/>
    </time>

    <report>
        <no-warnings value="true"/>
        <ignore-errors value="true"/>
        <no-step-log value="true"/>
    </report>

</configuration>
-->
<routes xmlns:xsi="http://www.w3.org/2001/XMLSchema-instance" xsi:noNamespaceSchemaLocation="http://sumo.dlr.de/xsd/routes_file.xsd">
 <trip depart="0.00" departLane="best" from="24815668#4" id="truck0" to="-1095950436" type="truck_hybrid"/>
 <trip depart="3.31" departLane="best" from="-419983456" id="truck1" to="-28612121#3" type="truck_hybrid"/>
 <trip depart="6.63" departLane="best" departSpeed="max" from="30791623#0" id="truck2" to="27282698#0" type="truck_gas"/>
 <trip depart="9.94" departLane="best" from="58700469#1" id="truck3" to="-1792952" type="truck_hybrid"/>
 <trip depart="13.25" departLane="best" from="1086828730" id="truck4" to="-119371823#0" type="truck_hybrid"/>
 <trip depart="16.57" departLane="best" departSpeed="max" from="-2799055#1" id="truck5" to="1757741#0" type="truck_hybrid"/>
 <trip depart="19.88" departLane="best" from="-1095950437#2" id="truck6" to="-27360366" type="truck_gas"/>
 <trip depart="23.19" departLane="best" departSpeed="max" from="265595572#0" id="truck7" to="1810993#0" type="truck_hybrid"/>
 <trip depart="26.51" departLane="best" departSpeed="max" from="-2799057#4" id="truck8" to="1987823" type="truck_gas"/>
 <trip depart="29.82" departLane="best" from="420039030#1" id="truck9" to="-1054231455#1" type="truck_hybrid"/>
 <trip depart="33.13" departLane="best" from="420019665#1" id="truck10" to="2799542#0" type="truck_hybrid"/>
 <trip depart="36.45" departLane="best" from="-745633511#0" id="truck11" to="-23176953" type="truck_gas"/>
 <trip depart="39.76" departLane="best" from="8122540#0" id="truck12" to="-788241681#1" type="truck_hybrid"/>
 <trip depart="43.07" departLane="best" from="-1792955#1" id="truck13" to="-1803895#0" type="truck_hybrid"/>
 <trip depart="46.38" departLane="best" from="496752514#1" id="truck14" to="2057995#4" type="truck_gas"/>
 <trip depart="49.70" departLane="best" from="420019665#3" id="truck15" to="30791623#2" type="truck_gas"/>
 <trip depart="53.01" departLane="best" from="-8122798#2" id="truck16" to="1880380#0" type="truck_hybrid"/>
 <trip depart="56.32" departLane="best" departSpeed="max" from="4785624#0" id="truck17" to="237193347#0" type="truck_gas"/>
 <trip depart="59.64" departLane="best" from="513395775" id="truck18" to="1931231#4" type="truck_hybrid"/>
 <trip depart="62.95" departLane="best" departSpeed="max" from="-2799542#3" id="truck19" to="-496723169#0" type="truck_hybrid"/>
 <trip depart="66.26" departLane="best" from="-1757740#3" id="truck20" to="-30343395#2" type="truck_hybrid"/>
 <trip depart="72.89" departLane="best" from="24711682#6" id="truck22" to="-8122936" type="truck_hybrid"/>
 <trip depart="76.20" departLane="best" departSpeed="max" from="-8122549" id="truck23" to="-27360374" type="truck_gas"/>
 <trip depart="79.52" departLane="best" from="-3546485" id="truck24" to="788127491" type="truck_hybrid"/>
 <trip depart="86.14" departLane="best" from="-230933568#1" id="truck26" to="30791623#2" type="truck_hybrid"/>
 <trip depart="89.46" departLane="best" from="-1995182#3" id="truck27" to="1018614217#0" type="truck_hybrid"/>
 <trip depart="92.77" departLane="best" from="83840092#5" id="truck28" to="24710259#0" type="truck_gas"/>
 <trip depart="96.08" departLane="best" departSpeed="max" from="-2799542#3" id="truck29" to="-125164983" type="truck_gas"/>
 <trip depart="99.40" departLane="best" from="-27282699#6" id="truck30" to="788670726" type="truck_gas"/>
 <trip depart="102.71" departLane="best" from="541765656" id="truck31" to="-58700472#1" type="truck_hybrid"/>
 <trip depart="106.02" departLane="best" departSpeed="max" from="27201304#0" id="truck32" to="1057215858" type="truck_gas"/>
 <trip depart="109.34" departLane="best" from="741047136#1" id="truck33" to="157997445#0" type="truck_hybrid"/>
 <trip depart="112.65" departLane="best" departSpeed="max" from="-3497837#2" id="truck34" to="-351693646#1" type="truck_gas"/>
 <trip depart="115.96" departLane="best" from="1993006" id="truck35" to="660103919#2" type="truck_gas"/>
 <trip depart="119.27" departLane="best" from="1002168430" id="truck36" to="-2799539#5" type="truck_gas"/>
 <trip depart="122.59" departLane="best" from="978548324#0" id="truck37" to="1757749#0" type="truck_hybrid"/>
 <trip depart="125.90" departLane="best" from="-1792952" id="truck38" to="-155813647#0" type="truck_gas"/>
 <trip depart="129.21" departLane="best" departSpeed="max" from="419983456" id="truck39" to="1105477150" type="truck_gas"/>
 <trip depart="132.53" departLane="best" from="-168117394#2" id="truck40" to="1022588990#1" type="truck_hybrid"/>
 <trip depart="135.84" departLane="best" from="975053647#0" id="truck41" to="1803899#0" type="truck_gas"/>
 <trip depart="139.15" departLane="best" from="8122799" id="truck42" to="532535378#2" type="truck_gas"/>
 <trip depart="142.47" departLane="best" departSpeed="max" from="-104700281" id="truck43" to="30189718" type="truck_hybrid"/>
 <trip depart="145.78" departLane="best" departSpeed="max" from="27360366" id="truck44" to="1803908#0" type="truck_gas"/>
 <trip depart="149.09" departLane="best" from="-3546485" id="truck45" to="24710259#0" type="truck_gas"/>
 <trip depart="152.41" departLane="best" from="-1810985" id="truck46" to="150032853" type="truck_gas"/>
 <trip depart="155.72" departLane="best" from="153329971#4" id="truck47" to="8122547#6" type="truck_gas"/>
 <trip depart="159.03" departLane="best" departSpeed="max" from="536177365#0" id="truck48" to="-4311694#6" type="truck_hybrid"/>
 <trip depart="162.35" departLane="best" from="1750662#9" id="truck49" to="-27222509" type="truck_hybrid"/>
 <trip depart="165.66" departLane="best" from="741047135#0" id="truck50" to="549231467#1" type="truck_hybrid"/>
 <trip depart="168.97" departLane="best" departSpeed="max" from="-5073895" id="truck51" to="24710259#0" type="truck_hybrid"/>
 <trip depart="172.29" departLane="best" from="237099601#0" id="truck52" to="-2057996" type="truck_hybrid"/>
 <trip depart="175.60" departLane="best" from="359163722#4" id="truck53" to="1810987#0" type="truck_hybrid"/>
 <trip depart="178.91" departLane="best" from="41076224#0" id="truck54" to="1803901#2" type="truck_hybrid"/>
 <trip depart="182.23" departLane="best" from="-1022588989#2" id="truck55" to="-743081702" type="truck_hybrid"/>
 <trip depart="185.54" departLane="best" from="-1066507094#0" id="truck56" to="751406915" type="truck_hybrid"/>
 <trip depart="188.85" departLane="best" departSpeed="max" from="545444991#0" id="truck57" to="496719502#0" type="truck_hybrid"/>
 <trip depart="192.17" departLane="best" departSpeed="max" from="545444991#0" id="truck58" to="8122539#2" type="truck_gas"/>
 <trip depart="195.48" departLane="best" from="-1757749#3" id="truck59" to="168121176#4" type="truck_hybrid"/>
 <trip depart="198.79" departLane="best" from="-168133324#9" id="truck60" to="359163722#0" type="truck_hybrid"/>
 <trip depart="202.10" departLane="best" from="162057683#0" id="truck61" to="1810998#2" type="truck_hybrid"/>
 <trip depart="205.42" departLane="best" departSpeed="max" from="-3497837#2" id="truck62" to="555575817" type="truck_hybrid"/>
 <trip depart="208.73" departLane="best" departSpeed="max" from="1091239425#0" id="truck63" to="-2798744#6" type="truck_hybrid"/>
 <trip depart="212.04" departLane="best" from="1809824#0" id="truck64" to="30791623#2" type="truck_hybrid"/>
 <trip depart="215.36" departLane="best" from="-27222527" id="truck65" to="-58700468#8" type="truck_gas"/>
 <trip depart="218.67" departLane="best" from="946767471#3" id="truck66" to="24815671" type="truck_gas"/>
 <trip depart="221.98" departLane="best" departSpeed="max" from="119371823#0" id="truck67" to="1792953#0" type="truck_hybrid"/>
 <trip depart="225.30" departLane="best" from="-1810997#1" id="truck68" to="-28612124#4" type="truck_gas"/>
 <trip depart="228.61" departLane="best" from="-741047137#1" id="truck69" to="1987823" type="truck_gas"/>
 <trip depart="231.92" departLane="best" from="-174675649#5" id="truck70" to="2400599#1" type="truck_hybrid"/>
 <trip depart="235.24" departLane="best" from="5073896#0" id="truck71" to="-1751859#6" type="truck_hybrid"/>
 <trip depart="238.55" departLane="best" departSpeed="max" from="-293452705#3" id="truck72" to="27222528#0" type="truck_hybrid"/>
 <trip depart="241.86" departLane="best" from="-2799049#1" id="truck73" to="-1881453" type="truck_hybrid"/>
 <trip depart="245.18" departLane="best" departSpeed="max" from="784043642" id="truck74" to="1881481" type="truck_hybrid"/>
 <trip depart="248.49" departLane="best" from="158170354#0" id="truck75" to="417952867" type="truck_gas"/>
 <trip depart="251.80" departLane="best" from="420039025" id="truck76" to="-27282698#3" type="truck_hybrid"/>
 <trip depart="255.12" departLane="best" from="-1803216" id="truck77" to="121391077#0" type="truck_hybrid"/>
 <trip depart="258.43" departLane="best" departSpeed="max" from="1091239425#0" id="truck78" to="161663922#0" type="truck_hybrid"/>
 <trip depart="261.74" departLane="best" departSpeed="max" from="30343395#0" id="truck79" to="27222736" type="truck_gas"/>
 <trip depart="265.06" departLane="best" from="1044528743#1" id="truck80" to="-788836632" type="truck_gas"/>
 <trip depart="268.37" departLane="best" from="513395775" id="truck81" to="-357113628#14" type="truck_hybrid"/>
 <trip depart="271.68" departLane="best" from="-265592583#1" id="truck82" to="157990331#0" type="truck_hybrid"/>
 <trip depart="278.31" departLane="best" departSpeed="max" from="-324096004" id="truck84" to="745633511#1" type="truck_gas"/>
 <trip depart="284.93" departLane="best" from="978551519" id="truck86" to="496719502#4" type="truck_gas"/>
 <trip depart="288.25" departLane="best" from="497212171" id="truck87" to="-24711682#5" type="truck_gas"/>
 <trip depart="291.56" departLane="best" from="162077514#0" id="truck88" to="-2799050" type="truck_hybrid"/>
 <trip depart="294.87" departLane="best" from="1002168436" id="truck89" to="-162078539#3" type="truck_hybrid"/>
 <trip depart="298.19" departLane="best" from="-8122798#3" id="truck90" to="86433463#0" type="truck_gas"/>
 <trip depart="301.50" departLane="best" departSpeed="max" from="-3497837#2" id="truck91" to="412767590#2" type="truck_gas"/>
 <trip depart="304.81" departLane="best" from="153329974#0" id="truck92" to="1107131062#0" type="truck_gas"/>
 <trip depart="308.13" departLane="best" from="8122540#0" id="truck93" to="956570844" type="truck_hybrid"/>
 <trip depart="311.44" departLane="best" departSpeed="max" from="-1987822" id="truck94" to="-514327559#3" type="truck_hybrid"/>
 <trip depart="314.75" departLane="best" from="8122797#0" id="truck95" to="1966241#0" type="truck_gas"/>
 <trip depart="318.07" departLane="best" departSpeed="max" from="1810986#0" id="truck96" to="334300303#0" type="truck_hybrid"/>
 <trip depart="321.38" departLane="best" from="-162058550#1" id="truck97" to="1987821" type="truck_hybrid"/>
 <trip depart="324.69" departLane="best" from="1751862" id="truck98" to="514277851#1" type="truck_gas"/>
 <trip depart="328.01" departLane="best" departSpeed="max" from="-1987823" id="truck99" to="8122602#0" type="truck_hybrid"/>
 <trip depart="331.32" departLane="best" from="-290453074#0" id="truck100" to="-1811000" type="truck_hybrid"/>
 <trip depart="334.63" departLane="best" departSpeed="max" from="58700468#0" id="truck101" to="-351693646#1" type="truck_hybrid"/>
 <trip depart="337.95" departLane="best" from="1070604445" id="truck102" to="1987821" type="truck_gas"/>
 <trip depart="341.26" departLane="best" from="27222739" id="truck103" to="-532535375#7" type="truck_hybrid"/>
 <trip depart="344.57" departLane="best" from="-572860137#1" id="truck104" to="351693646#0" type="truck_gas"/>
 <trip depart="347.89" departLane="best" from="549191946#0" id="truck105" to="577311347#16" type="truck_gas"/>
 <trip depart="351.20" departLane="best" from="-8122547#9" id="truck106" to="-237094960" type="truck_gas"/>
 <trip depart="354.51" departLane="best" from="237193347#0" id="truck107" to="893729920#1" type="truck_hybrid"/>
 <trip depart="357.82" departLane="best" from="27201303#0" id="truck108" to="-10615882#0" type="truck_gas"/>
 <trip depart="361.14" departLane="best" from="4311696#0" id="truck109" to="-532535375#1" type="truck_hybrid"/>
 <trip depart="364.45" departLane="best" from="27222515" id="truck110" to="788195863#2" type="truck_hybrid"/>
 <trip depart="367.76" departLane="best" from="-1881452#0" id="truck111" to="-1810995#1" type="truck_gas"/>
 <trip depart="371.08" departLane="best" departSpeed="max" from="-1803907#1" id="truck112" to="1880650#0" type="truck_hybrid"/>
 <trip depart="374.39" departLane="best" from="-360156354#2" id="truck113" to="207515926#0" type="truck_gas"/>
 <trip depart="377.70" departLane="best" from="28612121#9" id="truck114" to="-27360370" type="truck_gas"/>
 <trip depart="381.02" departLane="best" from="24711681#0" id="truck115" to="-4311695#3" type="truck_hybrid"/>
 <trip depart="387.64" departLane="best" from="496723169#1" id="truck117" to="-1803215#0" type="truck_gas"/>
 <trip depart="394.27" departLane="best" departSpeed="max" from="-1022588990#2" id="truck119" to="36123647" type="truck_hybrid"/>
 <trip depart="397.58" departLane="best" from="24806736#1" id="truck120" to="-42341349" type="truck_hybrid"/>
 <trip depart="400.90" departLane="best" from="1094548122#0" id="truck121" to="-1065734935#0" type="truck_gas"/>
 <trip depart="404.21" departLane="best" from="-1751859#6" id="truck122" to="58700470#1" type="truck_gas"/>
 <trip depart="414.15" departLane="best" departSpeed="max" from="-1966241#2" id="truck125" to="-1881442" type="truck_hybrid"/>
 <trip depart="420.78" departLane="best" from="419983490#1" id="truck127" to="532535378#2" type="truck_hybrid"/>
 <trip depart="424.09" departLane="best" from="589878590#0" id="truck128" to="-27360376" type="truck_gas"/>
 <trip depart="427.40" departLane="best" departSpeed="max" from="-30791623#4" id="truck129" to="-1803906#2" type="truck_gas"/>
 <trip depart="430.71" departLane="best" departSpeed="max" from="412767590#0" id="truck130" to="58700471#0" type="truck_gas"/>
 <trip depart="434.03" departLane="best" from="1052753809" id="truck131" to="237204096#10" type="truck_gas"/>
 <trip depart="437.34" departLane="best" departSpeed="max" from="-1987822" id="truck132" to="753074070#0" type="truck_gas"/>
 <trip depart="440.65" departLane="best" from="420039035#0" id="truck133" to="58700468#8" type="truck_gas"/>
 <trip depart="443.97" departLane="best" from="-1087318823" id="truck134" to="324096004" type="truck_hybrid"/>
 <trip depart="447.28" departLane="best" departSpeed="max" from="-679005630#1" id="truck135" to="755312621#2" type="truck_hybrid"/>
 <trip depart="453.91" departLane="best" from="420039035#0" id="truck137" to="-4311698#8" type="truck_hybrid"/>
 <trip depart="457.22" departLane="best" from="419983446" id="truck138" to="-1810987#0" type="truck_gas"/>
 <trip depart="460.53" departLane="best" departSpeed="max" from="-2799057#4" id="truck139" to="4311696#0" type="truck_hybrid"/>
 <trip depart="463.85" departLane="best" from="157990331#1" id="truck140" to="-572860133" type="truck_hybrid"/>
 <trip depart="467.16" departLane="best" from="419983490#0" id="truck141" to="-30334021#0" type="truck_gas"/>
 <trip depart="470.47" departLane="best" from="-1085352792#1" id="truck142" to="-27282699#6" type="truck_hybrid"/>
 <trip depart="480.41" departLane="best" from="24815668#9" id="truck145" to="1065734933#0" type="truck_hybrid"/>
 <trip depart="483.73" departLane="best" from="8122547#6" id="truck146" to="-4311698#8" type="truck_gas"/>
 <trip depart="487.04" departLane="best" departSpeed="max" from="30343395#0" id="truck147" to="-58700471#11" type="truck_gas"/>
 <trip depart="490.35" departLane="best" from="237094960" id="truck148" to="1757750" type="truck_gas"/>
 <trip depart="493.67" departLane="best" from="-8123093#1" id="truck149" to="1931229#0" type="truck_hybrid"/>
 <trip depart="496.98" departLane="best" departSpeed="max" from="-330748689#1" id="truck150" to="28612121#15" type="truck_hybrid"/>
 <trip depart="500.29" departLane="best" departSpeed="max" from="-1022588990#2" id="truck151" to="751406910#3" type="truck_gas"/>
 <trip depart="503.61" departLane="best" from="1803906#0" id="truck152" to="293452705#0" type="truck_hybrid"/>
 <trip depart="506.92" departLane="best" from="330748689#1" id="truck153" to="27222530#0" type="truck_hybrid"/>
 <trip depart="510.23" departLane="best" from="-8122540#1" id="truck154" to="-174675649#7" type="truck_gas"/>
 <trip depart="513.54" departLane="best" from="-558860534" id="truck155" to="5073895" type="truck_gas"/>
 <trip depart="516.86" departLane="best" from="287790810#1" id="truck156" to="-532535378#1" type="truck_hybrid"/>
 <trip depart="520.17" departLane="best" from="-543567822" id="truck157" to="1068593228" type="truck_hybrid"/>
 <trip depart="523.48" departLane="best" from="1044528743#1" id="truck158" to="-514277851#3" type="truck_gas"/>
 <trip depart="526.80" departLane="best" from="-1880654#1" id="truck159" to="1095950437#0" type="truck_hybrid"/>
 <trip depart="530.11" departLane="best" from="664506583" id="truck160" to="237094962#3" type="truck_gas"/>
 <trip depart="533.42" departLane="best" departSpeed="max" from="1095950436" id="truck161" to="1966241#1" type="truck_hybrid"/>
 <trip depart="536.74" departLane="best" departSpeed="max" from="27201304#0" id="truck162" to="160328977#1" type="truck_hybrid"/>
 <trip depart="540.05" departLane="best" departSpeed="max" from="144234698#0" id="truck163" to="-2799050" type="truck_gas"/>
 <trip depart="546.68" departLane="best" from="419983490#1" id="truck165" to="-24823743#4" type="truck_gas"/>
 <trip depart="549.99" departLane="best" from="24665342#0" id="truck166" to="-788241681#0" type="truck_gas"/>
 <trip depart="553.30" departLane="best" departSpeed="max" from="4311698#0" id="truck167" to="3497839#0" type="truck_hybrid"/>
 <trip depart="556.62" departLane="best" from="27282696#4" id="truck168" to="-28612124#4" type="truck_hybrid"/>
 <trip depart="559.93" departLane="best" from="-30473724#11" id="truck169" to="162064601#13" type="truck_gas"/>
 <trip depart="563.24" departLane="best" from="497264718" id="truck170" to="-1755184#3" type="truck_hybrid"/>
 <trip depart="566.56" departLane="best" from="1066782700" id="truck171" to="237236398#0" type="truck_gas"/>
 <trip depart="569.87" departLane="best" from="-27222512" id="truck172" to="2799539#2" type="truck_gas"/>
 <trip depart="573.18" departLane="best" from="168133324#4" id="truck173" to="-330748694#6" type="truck_gas"/>
 <trip depart="576.50" departLane="best" departSpeed="max" from="27201304#0" id="truck174" to="-1050242375#2" type="truck_gas"/>
 <trip depart="579.81" departLane="best" from="3546485" id="truck175" to="360156354#0" type="truck_hybrid"/>
 <trip depart="583.12" departLane="best" from="-1803906#2" id="truck176" to="119371823#1" type="truck_hybrid"/>
 <trip depart="586.43" departLane="best" from="-24630673#3" id="truck177" to="8122573" type="truck_hybrid"/>
 <trip depart="589.75" departLane="best" from="1792946#2" id="truck178" to="-157990331#1" type="truck_hybrid"/>
 <trip depart="593.06" departLane="best" from="153329976" id="truck179" to="419993049#0" type="truck_hybrid"/>
 <trip depart="596.37" departLane="best" from="2057992" id="truck180" to="8122547#1" type="truck_hybrid"/>
 <trip depart="599.69" departLane="best" from="58700468#8" id="truck181" to="23176953" type="truck_gas"/>
 <trip depart="603.00" departLane="best" from="28612124#0" id="truck182" to="1757740#2" type="truck_gas"/>
 <trip depart="606.31" departLane="best" departSpeed="max" from="4785624#0" id="truck183" to="1810996#2" type="truck_hybrid"/>
 <trip depart="609.63" departLane="best" from="58700472#2" id="truck184" to="330748694#7" type="truck_gas"/>
 <trip depart="612.94" departLane="best" from="162056879#0" id="truck185" to="-3993672#5" type="truck_hybrid"/>
 <trip depart="616.25" departLane="best" from="360156354#0" id="truck186" to="1803215#2" type="truck_gas"/>
 <trip depart="619.57" departLane="best" from="2400600#0" id="truck187" to="-4785624#2" type="truck_gas"/>
 <trip depart="622.88" departLane="best" from="-1755185#3" id="truck188" to="-496719502#1" type="truck_hybrid"/>
 <trip depart="629.51" departLane="best" from="1810982#0" id="truck190" to="-1881490#2" type="truck_hybrid"/>
 <trip depart="632.82" departLane="best" from="-28612121#14" id="truck191" to="2799058#3" type="truck_gas"/>
 <trip depart="636.13" departLane="best" from="2799539#2" id="truck192" to="-168117394#2" type="truck_hybrid"/>
 <trip depart="642.76" departLane="best" from="1987827" id="truck194" to="2799062#0" type="truck_hybrid"/>
 <trip depart="646.07" departLane="best" departSpeed="max" from="502430976#0" id="truck195" to="359205989#1" type="truck_gas"/>
 <trip depart="649.39" departLane="best" from="-8122801#2" id="truck196" to="-1051046549#2" type="truck_gas"/>
 <trip depart="652.70" departLane="best" from="502430973" id="truck197" to="8122547#4" type="truck_gas"/>
 <trip depart="656.01" departLane="best" from="1067892506#0" id="truck198" to="334300303#0" type="truck_gas"/>
 <trip depart="659.33" departLane="best" departSpeed="max" from="-737957639" id="truck199" to="27282699#4" type="truck_hybrid"/>
 <trip depart="662.64" departLane="best" from="157997445#0" id="truck200" to="-1881442" type="truck_hybrid"/>
 <trip depart="665.95" departLane="best" from="237232189#0" id="truck201" to="-1095950437#2" type="truck_hybrid"/>
 <trip depart="669.26" departLane="best" from="-1103871818" id="truck202" to="24711682#5" type="truck_hybrid"/>
 <trip depart="672.58" departLane="best" from="-1881453" id="truck203" to="157997449#0" type="truck_hybrid"/>
 <trip depart="675.89" departLane="best" departSpeed="max" from="-157991933#1" id="truck204" to="1018614217#0" type="truck_gas"/>
 <trip depart="679.20" departLane="best" from="-27282700" id="truck205" to="-751406914#0" type="truck_hybrid"/>
 <trip depart="682.52" departLane="best" from="359163714#0" id="truck206" to="1018614217#0" type="truck_gas"/>
 <trip depart="685.83" departLane="best" from="357113628#10" id="truck207" to="496719502#0" type="truck_gas"/>
 <trip depart="689.14" departLane="best" from="-32736146#1" id="truck208" to="-1757750" type="truck_hybrid"/>
 <trip depart="692.46" departLane="best" from="-1066507094#0" id="truck209" to="1810987#0" type="truck_gas"/>
 <trip depart="695.77" departLane="best" departSpeed="max" from="265595572#0" id="truck210" to="41076180#1" type="truck_gas"/>
 <trip depart="699.08" departLane="best" from="788836631#0" id="truck211" to="-27360368" type="truck_hybrid"/>
 <trip depart="702.40" departLane="best" from="-1066782700" id="truck212" to="-2057995#4" type="truck_gas"/>
 <trip depart="705.71" departLane="best" from="-1880652#2" id="truck213" to="27222530#0" type="truck_gas"/>
 <trip depart="709.02" departLane="best" from="1880654#1" id="truck214" to="-2799062#2" type="truck_hybrid"/>
 <trip depart="712.34" departLane="best" from="2799049#1" id="truck215" to="360156352" type="truck_gas"/>
 <trip depart="715.65" departLane="best" from="-2057995#3" id="truck216" to="207540450#2" type="truck_gas"/>
 <trip depart="718.96" departLane="best" from="33790396#0" id="truck217" to="-1810994" type="truck_gas"/>
 <trip depart="722.28" departLane="best" departSpeed="max" from="4311698#0" id="truck218" to="8122798#4" type="truck_hybrid"/>
 <trip depart="725.59" departLane="best" departSpeed="max" from="-1803907#1" id="truck219" to="-1095950436" type="truck_gas"/>
 <trip depart="728.90" departLane="best" departSpeed="max" from="-558860532" id="truck220" to="27282699#0" type="truck_gas"/>
 <trip depart="732.22" departLane="best" from="8122547#0" id="truck221" to="1057215858" type="truck_hybrid"/>
 <trip depart="735.53" departLane="best" from="28612121#1" id="truck222" to="-1757741#1" type="truck_gas"/>
 <trip depart="738.84" departLane="best" departSpeed="max" from="27360374" id="truck223" to="237232184#11" type="truck_hybrid"/>
 <trip depart="742.16" departLane="best" departSpeed="max" from="-1803898#5" id="truck224" to="36123647" type="truck_hybrid"/>
 <trip depart="745.47" departLane="best" from="497264721#0" id="truck225" to="201994912#0" type="truck_gas"/>
 <trip depart="748.78" departLane="best" from="-1810997#1" id="truck226" to="86421513#0" type="truck_gas"/>
 <trip depart="752.09" departLane="best" from="1094548123" id="truck227" to="-83350997#1" type="truck_gas"/>
 <trip depart="755.41" departLane="best" from="1755185#4" id="truck228" to="-789070481" type="truck_hybrid"/>
 <trip depart="758.72" departLane="best" from="497264718" id="truck229" to="464798406#1" type="truck_gas"/>
 <trip depart="765.35" departLane="best" from="30473725#1" id="truck231" to="8122799" type="truck_gas"/>
 <trip depart="768.66" departLane="best" from="-357113628#7" id="truck232" to="420039036#0" type="truck_gas"/>
 <trip depart="771.97" departLane="best" from="1803905" id="truck233" to="165576045#0" type="truck_gas"/>
 <trip depart="775.29" departLane="best" from="-357113628#14" id="truck234" to="513395775" type="truck_hybrid"/>
 <trip depart="778.60" departLane="best" departSpeed="max" from="4785624#0" id="truck235" to="-1792950" type="truck_hybrid"/>
 <trip depart="781.91" departLane="best" from="550456450#0" id="truck236" to="-330748694#5" type="truck_gas"/>
 <trip depart="788.54" departLane="best" from="-8122798#3" id="truck238" to="-119370263#3" type="truck_gas"/>
 <trip depart="791.85" departLane="best" from="497264724#0" id="truck239" to="-27222518" type="truck_hybrid"/>
 <trip depart="795.17" departLane="best" from="-745633511#0" id="truck240" to="577311347#9" type="truck_gas"/>
 <trip depart="801.79" departLane="best" departSpeed="max" from="-104700281" id="truck242" to="8122539#2" type="truck_hybrid"/>
 <trip depart="805.11" departLane="best" from="-1757749#3" id="truck243" to="30189718" type="truck_hybrid"/>
 <trip depart="808.42" departLane="best" departSpeed="max" from="165278578#0" id="truck244" to="357792889#0" type="truck_gas"/>
 <trip depart="811.73" departLane="best" departSpeed="max" from="27360374" id="truck245" to="24815668#0" type="truck_gas"/>
 <trip depart="815.05" departLane="best" from="165491192" id="truck246" to="419983465" type="truck_hybrid"/>
 <trip depart="818.36" departLane="best" from="-1792955#1" id="truck247" to="-28612121#14" type="truck_gas"/>
 <trip depart="821.67" departLane="best" departSpeed="max" from="27360374" id="truck248" to="-572860134#1" type="truck_gas"/>
 <trip depart="824.98" departLane="best" from="1931231#4" id="truck249" to="162064601#0" type="truck_hybrid"/>
 <trip depart="828.30" departLane="best" from="1803895#1" id="truck250" to="119371823#1" type="truck_gas"/>
 <trip depart="831.61" departLane="best" from="331903816#0" id="truck251" to="-788127490" type="truck_hybrid"/>
 <trip depart="834.92" departLane="best" departSpeed="max" from="-324096004" id="truck252" to="-1880651#1" type="truck_gas"/>
 <trip depart="838.24" departLane="best" departSpeed="max" from="-27222511" id="truck253" to="-1810999" type="truck_gas"/>
 <trip depart="841.55" departLane="best" from="1803902#0" id="truck254" to="359205984#0" type="truck_hybrid"/>
 <trip depart="844.86" departLane="best" from="162064601#5" id="truck255" to="30473724#1" type="truck_hybrid"/>
 <trip depart="848.18" departLane="best" from="8122939#3" id="truck256" to="1803897" type="truck_gas"/>
 <trip depart="854.80" departLane="best" departSpeed="max" from="-27222511" id="truck258" to="-30334021#0" type="truck_hybrid"/>
 <trip depart="858.12" departLane="best" departSpeed="max" from="-24710259#8" id="truck259" to="-1084623734" type="truck_gas"/>
 <trip depart="861.43" departLane="best" from="8122936" id="truck260" to="1880651#0" type="truck_gas"/>
 <trip depart="864.74" departLane="best" from="2798742#0" id="truck261" to="-1880654#1" type="truck_gas"/>
 <trip depart="868.06" departLane="best" departSpeed="max" from="527625586#0" id="truck262" to="174675649#4" type="truck_gas"/>
 <trip depart="871.37" departLane="best" from="-24823743#0" id="truck263" to="-157990331#2" type="truck_hybrid"/>
 <trip depart="874.68" departLane="best" from="788195862#0" id="truck264" to="162064601#3" type="truck_hybrid"/>
 <trip depart="878.00" departLane="best" departSpeed="max" from="-161663922#6" id="truck265" to="-201994910#2" type="truck_gas"/>