<?xml version="1.0" encoding="UTF-8"?>

<!-- generated on 2022-10-28 10:53:28.088451 by osmWebWizard.py UNKNOWN
<configuration>
    <allow-fringe.min-length value="1000.0"/>
    <end value="3600"/>
    <fringe-factor value="5.0"/>
    <fringe-start-attributes value="departSpeed=&quot;max&quot;"/>
    <lanes value="True"/>
    <min-distance value="300.0"/>
    <net-file value="/Users/hjalte/2022-10-28-10-53-12/osm.net.xml"/>
    <period value="2.20879471373579"/>
    <route-file value="/Users/hjalte/2022-10-28-10-53-12/osm.passenger.rou.xml"/>
    <trip-attributes value="departLane=&quot;best&quot;"/>
    <output-trip-file value="/Users/hjalte/2022-10-28-10-53-12/osm.passenger.trips.xml"/>
    <prefix value="veh"/>
    <validate value="True"/>
    <vehicle-class value="passenger"/>
</configuration>
-->

<!-- generated on 2022-10-28 10:53:27 by Eclipse SUMO duarouter Version 1.14.1
<configuration xmlns:xsi="http://www.w3.org/2001/XMLSchema-instance" xsi:noNamespaceSchemaLocation="http://sumo.dlr.de/xsd/duarouterConfiguration.xsd">

    <input>
        <net-file value="/Users/hjalte/2022-10-28-10-53-12/osm.net.xml"/>
        <route-files value="/Users/hjalte/2022-10-28-10-53-12/osm.passenger.trips.xml"/>
    </input>

    <output>
        <output-file value="/Users/hjalte/2022-10-28-10-53-12/osm.passenger.trips.xml.tmp"/>
        <alternatives-output value="NUL"/>
        <write-trips value="true"/>
    </output>

    <time>
        <begin value="0"/>
        <end value="3600"/>
    </time>

    <report>
        <no-warnings value="true"/>
        <ignore-errors value="true"/>
        <no-step-log value="true"/>
    </report>

</configuration>
-->

<routes xmlns:xsi="http://www.w3.org/2001/XMLSchema-instance" xsi:noNamespaceSchemaLocation="http://sumo.dlr.de/xsd/routes_file.xsd">
    <trip id="veh0" type="veh_ev" depart="0.00" departLane="best" departSpeed="max" from="27360374" to="-119371823#0"/>
    <trip id="veh1" type="veh_ev" depart="2.21" departLane="best" from="-58700469#0" to="-364393486#3"/>
    <trip id="veh2" type="veh_ev" depart="4.42" departLane="best" from="58700472#3" to="-1803902#1"/>
    <trip id="veh3" type="veh_ev" depart="6.63" departLane="best" from="162064349#6" to="-132238377"/>
    <trip id="veh4" type="veh_ev" depart="8.84" departLane="best" from="-330748689#0" to="1881441"/>
    <trip id="veh5" type="veh_ev" depart="11.04" departLane="best" departSpeed="max" from="-119371823#1" to="-30343395#2"/>
    <trip id="veh6" type="veh_ev" depart="13.25" departLane="best" from="2799049#3" to="207540450#2"/>
    <trip id="veh7" type="veh_ev" depart="15.46" departLane="best" departSpeed="max" from="-330748689#1" to="24710258#0"/>
    <trip id="veh9" type="veh_ev" depart="19.88" departLane="best" from="464798462" to="330694633#0"/>
    <trip id="veh10" type="veh_ev" depart="22.09" departLane="best" departSpeed="max" from="-975053647#5" to="-27222513"/>
    <trip id="veh11" type="veh_ev" depart="24.30" departLane="best" from="8122537#0" to="1022588990#1"/>
    <trip id="veh12" type="veh_ev" depart="26.51" departLane="best" departSpeed="max" from="-1803907#1" to="-1810992#0"/>
    <trip id="veh13" type="veh_ev" depart="28.71" departLane="best" from="5073896#0" to="24823743#0"/>
    <trip id="veh14" type="veh_ev" depart="30.92" departLane="best" departSpeed="max" from="4785624#0" to="360156352"/>
    <trip id="veh15" type="veh_ev" depart="33.13" departLane="best" from="230933568#0" to="83348744#9"/>
    <trip id="veh16" type="veh_ev" depart="35.34" departLane="best" departSpeed="max" from="1095950436" to="237094961#0"/>
    <trip id="veh17" type="veh_ev" depart="37.55" departLane="best" from="497264718" to="27222519"/>
    <trip id="veh18" type="veh_ev" depart="39.76" departLane="best" from="532535375#2" to="237232184#6"/>
    <trip id="veh19" type="veh_ev" depart="41.97" departLane="best" from="3497839#0" to="-157991925#1"/>
    <trip id="veh20" type="veh_ev" depart="44.18" departLane="best" departSpeed="max" from="-3497837#2" to="-788127490"/>
    <trip id="veh21" type="veh_ev" depart="46.38" departLane="best" from="-1792955#0" to="-4316408#1"/>
    <trip id="veh23" type="veh_ev" depart="50.80" departLane="best" from="1094548117" to="-330748689#0"/>
    <trip id="veh24" type="veh_ev" depart="53.01" departLane="best" from="-532535378#1" to="788127488"/>
    <trip id="veh25" type="veh_ev" depart="55.22" departLane="best" from="2798744#0" to="27201302#1"/>
    <trip id="veh26" type="veh_ev" depart="57.43" departLane="best" from="-27222523" to="360156352"/>
    <trip id="veh27" type="veh_ev" depart="59.64" departLane="best" from="-265592583#1" to="1103871818"/>
    <trip id="veh28" type="veh_ev" depart="61.85" departLane="best" from="83840092#3" to="2799057#0"/>
    <trip id="veh29" type="veh_ev" depart="64.06" departLane="best" from="237232180#2" to="30791623#2"/>
    <trip id="veh30" type="veh_ev" depart="66.26" departLane="best" departSpeed="max" from="502430976#0" to="420019665#0"/>
    <trip id="veh31" type="veh_ev" depart="68.47" departLane="best" from="-351693646#1" to="-144234698#1"/>
    <trip id="veh32" type="veh_ev" depart="70.68" departLane="best" from="-8122540#1" to="-572860135#1"/>
    <trip id="veh33" type="veh_ev" depart="72.89" departLane="best" from="-30473724#2" to="788836631#0"/>
    <trip id="veh34" type="veh_ev" depart="75.10" departLane="best" from="555575817" to="-8122798#4"/>
    <trip id="veh35" type="veh_ev" depart="77.31" departLane="best" from="28612120#0" to="152853466#1"/>
    <trip id="veh36" type="veh_ev" depart="79.52" departLane="best" from="741047136#1" to="1757741#0"/>
    <trip id="veh37" type="veh_ev" depart="81.73" departLane="best" from="-515290221" to="-48952321"/>
    <trip id="veh38" type="veh_ev" depart="83.93" departLane="best" from="237232184#11" to="-555575817"/>
    <trip id="veh40" type="veh_ev" depart="88.35" departLane="best" from="153329972#1" to="-357762965#3"/>
    <trip id="veh41" type="veh_ev" depart="90.56" departLane="best" from="-1803905" to="-157996444#2"/>
    <trip id="veh42" type="veh_ev" depart="92.77" departLane="best" departSpeed="max" from="-1880659" to="27282697"/>
    <trip id="veh43" type="veh_ev" depart="94.98" departLane="best" from="4311696#0" to="162057867#1"/>
    <trip id="veh44" type="veh_ev" depart="97.19" departLane="best" departSpeed="max" from="-174675649#9" to="119371823#1"/>
    <trip id="veh45" type="veh_ev" depart="99.40" departLane="best" from="956570844" to="1987823"/>
    <trip id="veh46" type="veh_ev" depart="101.60" departLane="best" from="8122800#0" to="549231467#1"/>
    <trip id="veh47" type="veh_ev" depart="103.81" departLane="best" from="-1050242375#2" to="359163722#4"/>
    <trip id="veh48" type="veh_ev" depart="106.02" departLane="best" from="30473724#0" to="1995182#1"/>
    <trip id="veh49" type="veh_ev" depart="108.23" departLane="best" from="-532535375#7" to="2799057#2"/>
    <trip id="veh50" type="veh_ev" depart="110.44" departLane="best" from="-1881442" to="162078539#0"/>
    <trip id="veh51" type="veh_ev" depart="112.65" departLane="best" from="1757744#4" to="8122549"/>
    <trip id="veh52" type="veh_ev" depart="114.86" departLane="best" from="1881442" to="-27360374"/>
    <trip id="veh53" type="veh_ev" depart="117.07" departLane="best" from="741047135#1" to="577311347#16"/>
    <trip id="veh54" type="veh_ev" depart="119.27" departLane="best" from="-751406917#1" to="2799055#0"/>
    <trip id="veh55" type="veh_ev" depart="121.48" departLane="best" departSpeed="max" from="27201304#0" to="-27222509"/>
    <trip id="veh56" type="veh_ev" depart="123.69" departLane="best" from="419983490#0" to="201994915#0"/>
    <trip id="veh57" type="veh_ev" depart="125.90" departLane="best" from="420019665#1" to="1987825"/>
    <trip id="veh58" type="veh_ev" depart="128.11" departLane="best" from="-1002168436" to="-946767471#1"/>
    <trip id="veh59" type="veh_ev" depart="130.32" departLane="best" from="-1084623771" to="751406915"/>
    <trip id="veh60" type="veh_ev" depart="132.53" departLane="best" from="572860130" to="502430973"/>
    <trip id="veh61" type="veh_ev" depart="134.74" departLane="best" from="-788543005#1" to="-168133324#0"/>
    <trip id="veh62" type="veh_ev" depart="136.95" departLane="best" from="572860130" to="8122540#0"/>
    <trip id="veh63" type="veh_ev" depart="139.15" departLane="best" departSpeed="max" from="-1803898#5" to="1810982#0"/>
    <trip id="veh64" type="veh_ev" depart="141.36" departLane="best" from="-1757740#3" to="419983452#0"/>
    <trip id="veh65" type="veh_ev" depart="143.57" departLane="best" from="419985023#0" to="-201994910#2"/>
    <trip id="veh66" type="veh_ev" depart="145.78" departLane="best" from="1803902#0" to="230933568#1"/>
    <trip id="veh67" type="veh_ev" depart="147.99" departLane="best" from="-515290221" to="577311347#9"/>
    <trip id="veh68" type="veh_ev" depart="150.20" departLane="best" from="162064349#9" to="-330748694#6"/>
    <trip id="veh69" type="veh_ev" depart="152.41" departLane="best" from="237094962#0" to="360156352"/>
    <trip id="veh70" type="veh_ev" depart="154.62" departLane="best" from="-290453074#2" to="-8122602#0"/>
    <trip id="veh71" type="veh_ev" depart="156.82" departLane="best" from="946767471#0" to="28612120#1"/>
    <trip id="veh72" type="veh_ev" depart="159.03" departLane="best" from="1715109" to="1931229#0"/>
    <trip id="veh73" type="veh_ev" depart="161.24" departLane="best" from="-1881490#2" to="-3993672#1"/>
    <trip id="veh74" type="veh_ev" depart="163.45" departLane="best" from="-946767471#2" to="246646896#0"/>
    <trip id="veh75" type="veh_ev" depart="165.66" departLane="best" from="-351693646#1" to="-357762965#3"/>
    <trip id="veh76" type="veh_ev" depart="167.87" departLane="best" from="-1757744#3" to="27417066#0"/>
    <trip id="veh77" type="veh_ev" depart="170.08" departLane="best" from="-351693646#1" to="741047135#0"/>
    <trip id="veh78" type="veh_ev" depart="172.29" departLane="best" departSpeed="max" from="527625586#0" to="-1757749#3"/>
    <trip id="veh79" type="veh_ev" depart="174.49" departLane="best" from="-419983456" to="290508516"/>
    <trip id="veh80" type="veh_ev" depart="176.70" departLane="best" departSpeed="max" from="-30791623#4" to="-207515926#1"/>
    <trip id="veh81" type="veh_ev" depart="178.91" departLane="best" from="751406915" to="237232180#3"/>
    <trip id="veh82" type="veh_ev" depart="181.12" departLane="best" from="1803898#0" to="420039037"/>
    <trip id="veh83" type="veh_ev" depart="183.33" departLane="best" departSpeed="max" from="4785624#0" to="-28612121#14"/>
    <trip id="veh84" type="veh_ev" depart="185.54" departLane="best" from="-1810987#3" to="162064601#3"/>
    <trip id="veh85" type="veh_ev" depart="187.75" departLane="best" from="162064601#0" to="1792946#2"/>
    <trip id="veh86" type="veh_ev" depart="189.96" departLane="best" from="366013405#0" to="30189718"/>
    <trip id="veh87" type="veh_ev" depart="192.17" departLane="best" from="83348744#11" to="-1810993#1"/>
    <trip id="veh88" type="veh_ev" depart="194.37" departLane="best" from="155813647#1" to="104700281"/>
    <trip id="veh89" type="veh_ev" depart="196.58" departLane="best" from="532535375#2" to="-496719502#1"/>
    <trip id="veh90" type="veh_ev" depart="198.79" departLane="best" departSpeed="max" from="-2799057#4" to="1750662#3"/>
    <trip id="veh92" type="veh_ev" depart="203.21" departLane="best" from="-496719501#2" to="745633511#1"/>
    <trip id="veh93" type="veh_ev" depart="205.42" departLane="best" from="1750662#4" to="549231467#1"/>
    <trip id="veh94" type="veh_ev" depart="207.63" departLane="best" from="237204096#11" to="-162058550#1"/>
    <trip id="veh95" type="veh_ev" depart="209.84" departLane="best" from="978551519" to="5073896#6"/>
    <trip id="veh96" type="veh_ev" depart="212.04" departLane="best" from="8122798#0" to="751406910#6"/>
    <trip id="veh97" type="veh_ev" depart="214.25" departLane="best" from="513395774" to="-27282699#6"/>
    <trip id="veh98" type="veh_ev" depart="216.46" departLane="best" from="1810992#0" to="-351693646#1"/>
    <trip id="veh99" type="veh_ev" depart="218.67" departLane="best" from="153329976" to="-168133324#8"/>
    <trip id="veh100" type="veh_ev" depart="220.88" departLane="best" from="-521622372#3" to="420039036#0"/>
    <trip id="veh101" type="veh_ev" depart="223.09" departLane="best" from="1757748#1" to="162057867#1"/>
    <trip id="veh102" type="veh_ev" depart="225.30" departLane="best" from="8122537#0" to="946767471#2"/>
    <trip id="veh103" type="veh_ev" depart="227.51" departLane="best" from="237232180#0" to="359163722#0"/>
    <trip id="veh104" type="veh_ev" depart="229.71" departLane="best" departSpeed="max" from="-24710259#8" to="-788836632"/>
    <trip id="veh105" type="veh_ev" depart="231.92" departLane="best" from="8122797#1" to="237236398#0"/>
    <trip id="veh106" type="veh_ev" depart="234.13" departLane="best" from="237099605" to="412767590#2"/>
    <trip id="veh107" type="veh_ev" depart="236.34" departLane="best" departSpeed="max" from="-168121176#4" to="24612302#0"/>
    <trip id="veh108" type="veh_ev" depart="238.55" departLane="best" from="1881451" to="536177366#0"/>
    <trip id="veh109" type="veh_ev" depart="240.76" departLane="best" from="-24811189#1" to="8122798#4"/>
    <trip id="veh110" type="veh_ev" depart="242.97" departLane="best" from="-1792955#1" to="-2799058#2"/>
    <trip id="veh111" type="veh_ev" depart="245.18" departLane="best" departSpeed="max" from="24861648" to="30473724#0"/>
    <trip id="veh112" type="veh_ev" depart="247.39" departLane="best" from="-360156354#2" to="-1931231#3"/>
    <trip id="veh113" type="veh_ev" depart="249.59" departLane="best" departSpeed="max" from="58700472#0" to="-48952321"/>
    <trip id="veh114" type="veh_ev" depart="251.80" departLane="best" departSpeed="max" from="24861648" to="27222521"/>
    <trip id="veh115" type="veh_ev" depart="254.01" departLane="best" from="162057867#1" to="2415206#4"/>
    <trip id="veh116" type="veh_ev" depart="256.22" departLane="best" departSpeed="max" from="201631800#0" to="78328154#1"/>
    <trip id="veh117" type="veh_ev" depart="258.43" departLane="best" departSpeed="max" from="-293452705#3" to="357792888"/>
    <trip id="veh118" type="veh_ev" depart="260.64" departLane="best" from="-419983497#1" to="153329971#0"/>
    <trip id="veh119" type="veh_ev" depart="262.85" departLane="best" from="28612124#0" to="-797134489"/>
    <trip id="veh120" type="veh_ev" depart="265.06" departLane="best" from="-8122547#0" to="419983441#1"/>
    <trip id="veh121" type="veh_ev" depart="267.26" departLane="best" from="-1757748#1" to="1757740#2"/>
    <trip id="veh122" type="veh_ev" depart="269.47" departLane="best" from="978548324#2" to="956570844"/>
    <trip id="veh123" type="veh_ev" depart="271.68" departLane="best" from="-1757749#0" to="-331903816#3"/>
    <trip id="veh124" type="veh_ev" depart="273.89" departLane="best" from="-521622372#3" to="777233099"/>
    <trip id="veh125" type="veh_ev" depart="276.10" departLane="best" from="572860135#1" to="58700473#0"/>
    <trip id="veh126" type="veh_ev" depart="278.31" departLane="best" departSpeed="max" from="1091239425#0" to="-27222519"/>
    <trip id="veh127" type="veh_ev" depart="280.52" departLane="best" from="497264730#0" to="330748694#8"/>
    <trip id="veh128" type="veh_ev" depart="282.73" departLane="best" departSpeed="max" from="27222509" to="893729920#1"/>
    <trip id="veh129" type="veh_ev" depart="284.93" departLane="best" from="2799062#0" to="-1065734933#1"/>
    <trip id="veh130" type="veh_ev" depart="287.14" departLane="best" from="496717295#0" to="-797134489"/>
    <trip id="veh131" type="veh_ev" depart="289.35" departLane="best" from="28612120#21" to="788195863#2"/>
    <trip id="veh132" type="veh_ev" depart="291.56" departLane="best" departSpeed="max" from="-1987823" to="-1881462#2"/>
    <trip id="veh133" type="veh_ev" depart="293.77" departLane="best" from="-1880652#0" to="237094962#3"/>
    <trip id="veh134" type="veh_ev" depart="295.98" departLane="best" from="-572860134#1" to="24823745#0"/>
    <trip id="veh135" type="veh_ev" depart="298.19" departLane="best" from="359163722#4" to="-30473724#14"/>
    <trip id="veh136" type="veh_ev" depart="300.40" departLane="best" departSpeed="max" from="27360370" to="-558860534"/>
    <trip id="veh137" type="veh_ev" depart="302.60" departLane="best" from="1810996#2" to="741047135#0"/>
    <trip id="veh138" type="veh_ev" depart="304.81" departLane="best" departSpeed="max" from="502430976#0" to="-1810986#2"/>
    <trip id="veh140" type="veh_ev" depart="309.23" departLane="best" departSpeed="max" from="-1022588990#2" to="419993035#0"/>
    <trip id="veh141" type="veh_ev" depart="311.44" departLane="best" departSpeed="max" from="27360372" to="-543567822"/>
    <trip id="veh142" type="veh_ev" depart="313.65" departLane="best" from="419969433" to="237094960"/>
    <trip id="veh143" type="veh_ev" depart="315.86" departLane="best" from="162064601#4" to="-1066507084"/>
    <trip id="veh144" type="veh_ev" depart="318.07" departLane="best" from="-1757751#3" to="60929926"/>
    <trip id="veh146" type="veh_ev" depart="322.48" departLane="best" from="497264733" to="2415206#2"/>
    <trip id="veh147" type="veh_ev" depart="324.69" departLane="best" from="-237193332" to="-201631800#1"/>
    <trip id="veh149" type="veh_ev" depart="329.11" departLane="best" departSpeed="max" from="4316409#0" to="549231467#1"/>
    <trip id="veh150" type="veh_ev" depart="331.32" departLane="best" from="660103919#1" to="-330748694#2"/>
    <trip id="veh151" type="veh_ev" depart="333.53" departLane="best" from="-496719501#2" to="-1810999"/>
    <trip id="veh152" type="veh_ev" depart="335.74" departLane="best" from="420039025" to="60929926"/>
    <trip id="veh153" type="veh_ev" depart="337.95" departLane="best" from="157990331#8" to="27222526"/>
    <trip id="veh154" type="veh_ev" depart="340.15" departLane="best" departSpeed="max" from="-24710259#8" to="751406915"/>
    <trip id="veh155" type="veh_ev" depart="342.36" departLane="best" departSpeed="max" from="536177365#0" to="83840092#3"/>
    <trip id="veh157" type="veh_ev" depart="346.78" departLane="best" departSpeed="max" from="-119371823#1" to="366013231#0"/>
    <trip id="veh158" type="veh_ev" depart="348.99" departLane="best" from="-8122939#4" to="755312621#0"/>
    <trip id="veh159" type="veh_ev" depart="351.20" departLane="best" from="464798406#1" to="558860532"/>
    <trip id="veh161" type="veh_ev" depart="355.62" departLane="best" from="420039038" to="-1880654#0"/>
    <trip id="veh162" type="veh_ev" depart="357.82" departLane="best" departSpeed="max" from="545444991#0" to="549231467#1"/>
    <trip id="veh163" type="veh_ev" depart="360.03" departLane="best" from="-330748694#5" to="496723170#0"/>
    <trip id="veh164" type="veh_ev" depart="362.24" departLane="best" from="1792946#2" to="-8122547#1"/>
    <trip id="veh165" type="veh_ev" depart="364.45" departLane="best" departSpeed="max" from="4316409#0" to="-419983456"/>
    <trip id="veh166" type="veh_ev" depart="366.66" departLane="best" from="-1107131062#2" to="-28998620#1"/>
    <trip id="veh167" type="veh_ev" depart="368.87" departLane="best" from="-8122798#4" to="558860532"/>
    <trip id="veh169" type="veh_ev" depart="373.29" departLane="best" departSpeed="max" from="27413229#0" to="153329974#3"/>
    <trip id="veh170" type="veh_ev" depart="375.50" departLane="best" from="83348641#2" to="1995182#0"/>
    <trip id="veh171" type="veh_ev" depart="377.70" departLane="best" from="777233099" to="-1881460"/>
    <trip id="veh172" type="veh_ev" depart="379.91" departLane="best" from="8122799" to="-27360374"/>
    <trip id="veh173" type="veh_ev" depart="382.12" departLane="best" from="8122547#4" to="-572860133"/>
    <trip id="veh174" type="veh_ev" depart="384.33" departLane="best" from="-1880654#1" to="162078539#0"/>
    <trip id="veh175" type="veh_ev" depart="386.54" departLane="best" from="366013231#0" to="-8122797#1"/>
    <trip id="veh176" type="veh_ev" depart="388.75" departLane="best" departSpeed="max" from="27201304#0" to="1881456"/>
    <trip id="veh177" type="veh_ev" depart="390.96" departLane="best" departSpeed="max" from="125164983" to="237232184#5"/>
    <trip id="veh178" type="veh_ev" depart="393.17" departLane="best" from="-496723169#0" to="33790396#1"/>
    <trip id="veh179" type="veh_ev" depart="395.37" departLane="best" from="-1022588990#0" to="751406910#4"/>
    <trip id="veh180" type="veh_ev" depart="397.58" departLane="best" from="237094960" to="359163722#3"/>
    <trip id="veh181" type="veh_ev" depart="399.79" departLane="best" from="419983440#0" to="293452705#0"/>
    <trip id="veh182" type="veh_ev" depart="402.00" departLane="best" from="1067190735#0" to="-1757749#0"/>
    <trip id="veh183" type="veh_ev" depart="404.21" departLane="best" from="28612120#22" to="1018614217#0"/>
    <trip id="veh185" type="veh_ev" depart="408.63" departLane="best" from="359287903" to="-797134489"/>
    <trip id="veh186" type="veh_ev" depart="410.84" departLane="best" from="155813647#1" to="-788543005#1"/>
    <trip id="veh187" type="veh_ev" depart="413.04" departLane="best" departSpeed="max" from="-1966241#2" to="161663922#0"/>
    <trip id="veh188" type="veh_ev" depart="415.25" departLane="best" from="78328154#1" to="30473724#13"/>
    <trip id="veh190" type="veh_ev" depart="419.67" departLane="best" from="-784337790#2" to="229758123"/>
    <trip id="veh191" type="veh_ev" depart="421.88" departLane="best" from="-1002168436" to="-751406917#1"/>
    <trip id="veh192" type="veh_ev" depart="424.09" departLane="best" from="162077514#0" to="237236398#4"/>
    <trip id="veh193" type="veh_ev" depart="426.30" departLane="best" from="2799539#2" to="1792944#0"/>
    <trip id="veh194" type="veh_ev" depart="428.51" departLane="best" from="1750662#3" to="-351693646#1"/>
    <trip id="veh195" type="veh_ev" depart="430.71" departLane="best" from="1803899#0" to="679005636#1"/>
    <trip id="veh196" type="veh_ev" depart="432.92" departLane="best" departSpeed="max" from="4316409#0" to="-27360366"/>
    <trip id="veh197" type="veh_ev" depart="435.13" departLane="best" from="-1803898#1" to="1881489#0"/>
    <trip id="veh198" type="veh_ev" depart="437.34" departLane="best" departSpeed="max" from="27360368" to="1022588990#1"/>
    <trip id="veh199" type="veh_ev" depart="439.55" departLane="best" from="496719502#0" to="419983441#0"/>
    <trip id="veh200" type="veh_ev" depart="441.76" departLane="best" from="290453074#0" to="-3993672#1"/>
    <trip id="veh201" type="veh_ev" depart="443.97" departLane="best" from="-28612121#3" to="-1107131062#2"/>
    <trip id="veh203" type="veh_ev" depart="448.39" departLane="best" from="514277851#1" to="-1792944#1"/>
    <trip id="veh204" type="veh_ev" depart="450.59" departLane="best" from="158169135#0" to="27282699#4"/>
    <trip id="veh205" type="veh_ev" depart="452.80" departLane="best" departSpeed="max" from="-2799542#3" to="326635845"/>
    <trip id="veh207" type="veh_ev" depart="457.22" departLane="best" from="28612120#0" to="-1051046549#2"/>
    <trip id="veh208" type="veh_ev" depart="459.43" departLane="best" from="419983452#0" to="419985023#0"/>
    <trip id="veh209" type="veh_ev" depart="461.64" departLane="best" from="-27222736" to="8122602#4"/>
    <trip id="veh210" type="veh_ev" depart="463.85" departLane="best" from="1995180#1" to="-162057867#1"/>
    <trip id="veh212" type="veh_ev" depart="468.26" departLane="best" from="1757749#3" to="464798462"/>
    <trip id="veh213" type="veh_ev" depart="470.47" departLane="best" from="28612121#14" to="899195855#0"/>
    <trip id="veh214" type="veh_ev" depart="472.68" departLane="best" departSpeed="max" from="24861648" to="8122547#2"/>
    <trip id="veh215" type="veh_ev" depart="474.89" departLane="best" departSpeed="max" from="58700472#0" to="27222507#0"/>
    <trip id="veh216" type="veh_ev" depart="477.10" departLane="best" from="359205989#1" to="1880659"/>
    <trip id="veh217" type="veh_ev" depart="479.31" departLane="best" from="497264721#0" to="229758123"/>
    <trip id="veh218" type="veh_ev" depart="481.52" departLane="best" from="650297757" to="3993672#2"/>
    <trip id="veh219" type="veh_ev" depart="483.73" departLane="best" from="1803901#2" to="-515290221"/>
    <trip id="veh221" type="veh_ev" depart="488.14" departLane="best" from="419985023#0" to="1966241#1"/>
    <trip id="veh222" type="veh_ev" depart="490.35" departLane="best" from="27282700" to="-58700472#1"/>
    <trip id="veh223" type="veh_ev" depart="492.56" departLane="best" from="-1792948" to="-751406914#0"/>
    <trip id="veh224" type="veh_ev" depart="494.77" departLane="best" from="-558860533" to="-8123093#1"/>
    <trip id="veh225" type="veh_ev" depart="496.98" departLane="best" from="237094962#3" to="-2400599#2"/>
    <trip id="veh226" type="veh_ev" depart="499.19" departLane="best" from="-357113628#12" to="324096004"/>
    <trip id="veh227" type="veh_ev" depart="501.40" departLane="best" from="351693646#0" to="-1755185#3"/>
    <trip id="veh228" type="veh_ev" depart="503.61" departLane="best" from="157991925#2" to="207515926#2"/>
    <trip id="veh229" type="veh_ev" depart="505.81" departLane="best" from="160328977#1" to="-30791623#0"/>
    <trip id="veh230" type="veh_ev" depart="508.02" departLane="best" from="162064349#1" to="737957639"/>
    <trip id="veh231" type="veh_ev" depart="510.23" departLane="best" from="24815310#0" to="324096004"/>
    <trip id="veh232" type="veh_ev" depart="512.44" departLane="best" departSpeed="max" from="527625586#0" to="419983470"/>
    <trip id="veh233" type="veh_ev" depart="514.65" departLane="best" from="1096432025" to="-1054231455#1"/>
    <trip id="veh234" type="veh_ev" depart="516.86" departLane="best" from="1054231455#0" to="419983442#0"/>
    <trip id="veh235" type="veh_ev" depart="519.07" departLane="best" from="521622380#2" to="8122549"/>
    <trip id="veh236" type="veh_ev" depart="521.28" departLane="best" from="162057867#1" to="41076224#2"/>
    <trip id="veh237" type="veh_ev" depart="523.48" departLane="best" from="237193349#0" to="24815671"/>
    <trip id="veh238" type="veh_ev" depart="525.69" departLane="best" departSpeed="max" from="-330748689#1" to="-357762965#3"/>
    <trip id="veh239" type="veh_ev" depart="527.90" departLane="best" from="168121176#0" to="-125164983"/>
    <trip id="veh240" type="veh_ev" depart="530.11" departLane="best" from="-893729920#0" to="30473724#8"/>
    <trip id="veh241" type="veh_ev" depart="532.32" departLane="best" from="157990331#1" to="-27282699#1"/>
    <trip id="veh242" type="veh_ev" depart="534.53" departLane="best" from="1803215#2" to="-201631800#1"/>
    <trip id="veh243" type="veh_ev" depart="536.74" departLane="best" from="27222739" to="-119371823#0"/>
    <trip id="veh244" type="veh_ev" depart="538.95" departLane="best" from="1520606#0" to="237204096#2"/>
    <trip id="veh245" type="veh_ev" depart="541.15" departLane="best" from="-132238377" to="2799058#0"/>
    <trip id="veh246" type="veh_ev" depart="543.36" departLane="best" departSpeed="max" from="-1987825" to="1757748#1"/>
    <trip id="veh247" type="veh_ev" depart="545.57" departLane="best" from="-162078539#3" to="1096432025"/>
    <trip id="veh248" type="veh_ev" depart="547.78" departLane="best" from="-30473724#6" to="-978551520"/>
    <trip id="veh249" type="veh_ev" depart="549.99" departLane="best" from="419983470" to="1096432025"/>
    <trip id="veh250" type="veh_ev" depart="552.20" departLane="best" from="419983452#0" to="502430973"/>
    <trip id="veh251" type="veh_ev" depart="554.41" departLane="best" departSpeed="max" from="-496719502#12" to="-1803215#3"/>
    <trip id="veh252" type="veh_ev" depart="556.62" departLane="best" from="-1084623771" to="201994915#0"/>
    <trip id="veh253" type="veh_ev" depart="558.83" departLane="best" from="978551520" to="1057215858"/>
    <trip id="veh254" type="veh_ev" depart="561.03" departLane="best" from="2799050" to="420039030#0"/>
    <trip id="veh255" type="veh_ev" depart="563.24" departLane="best" from="2799057#0" to="419983445"/>
    <trip id="veh256" type="veh_ev" depart="565.45" departLane="best" from="788241681#1" to="-30343395#2"/>
    <trip id="veh257" type="veh_ev" depart="567.66" departLane="best" from="-1085650226" to="-27201308#1"/>
    <trip id="veh258" type="veh_ev" depart="569.87" departLane="best" departSpeed="max" from="-1966241#2" to="293452705#0"/>
    <trip id="veh259" type="veh_ev" depart="572.08" departLane="best" from="237232184#6" to="-357113628#8"/>
    <trip id="veh260" type="veh_ev" depart="574.29" departLane="best" from="331903816#0" to="419983490#0"/>
    <trip id="veh261" type="veh_ev" depart="576.50" departLane="best" from="-27222514" to="26154073#0"/>
    <trip id="veh262" type="veh_ev" depart="578.70" departLane="best" from="419983446" to="-1881456"/>
    <trip id="veh263" type="veh_ev" depart="580.91" departLane="best" from="496719502#2" to="8122938#2"/>
    <trip id="veh264" type="veh_ev" depart="583.12" departLane="best" from="-1880653" to="-119371823#0"/>
    <trip id="veh265" type="veh_ev" depart="585.33" departLane="best" from="-8122539#0" to="30473724#13"/>
    <trip id="veh266" type="veh_ev" depart="587.54" departLane="best" from="8122539#1" to="153329971#2"/>
    <trip id="veh267" type="veh_ev" depart="589.75" departLane="best" from="359163714#0" to="-1792953#0"/>
    <trip id="veh268" type="veh_ev" depart="591.96" departLane="best" departSpeed="max" from="30791623#0" to="27282697"/>
    <trip id="veh269" type="veh_ev" depart="594.17" departLane="best" from="-1810996#1" to="419993039"/>
    <trip id="veh270" type="veh_ev" depart="596.37" departLane="best" from="514277851#3" to="24815668#6"/>
    <trip id="veh271" type="veh_ev" depart="598.58" departLane="best" from="-1881490#2" to="86421513#0"/>
    <trip id="veh272" type="veh_ev" depart="600.79" departLane="best" from="420039029#0" to="1057215858"/>