<?xml version="1.0" encoding="UTF-8"?>

<!-- generated on 2022-10-28 10:53:26 by Eclipse SUMO polyconvert Version 1.14.1
<configuration xmlns:xsi="http://www.w3.org/2001/XMLSchema-instance" xsi:noNamespaceSchemaLocation="http://sumo.dlr.de/xsd/polyconvertConfiguration.xsd">

    <input>
        <net-file value="osm.net.xml"/>
        <osm-files value="osm_bbox.osm.xml.gz"/>
        <osm.keep-full-type value="true"/>
        <type-file value="/opt/homebrew/opt/sumo/share/sumo/data/typemap/osmPolyconvert.typ.xml"/>
    </input>

    <output>
        <output-file value="osm.poly.xml"/>
    </output>

    <report>
        <verbose value="true"/>
    </report>

</configuration>
-->

<additional xmlns:xsi="http://www.w3.org/2001/XMLSchema-instance" xsi:noNamespaceSchemaLocation="http://sumo.dlr.de/xsd/additional_file.xsd">
    <location netOffset="-346495.04,-6174262.33" convBoundary="-3464.21,-2069.43,4143.66,7007.36" origBoundary="12.498894,55.671349,12.624171,55.751627" projParameter="+proj=utm +zone=33 +ellps=WGS84 +datum=WGS84 +units=m +no_defs"/>

    <poly id="1013309674" type="amenity.kindergarten" color="237,199,199" fill="1" layer="-2.00" shape="1625.974699,1549.591216 1653.964884,1553.560997 1660.056252,1517.736911 1631.119455,1513.142880 1625.974699,1549.591216"/>
    <poly id="1013309675" type="building.kindergarten" color="255,230,230" fill="1" layer="-1.00" shape="1649.460509,1562.918948 1664.562629,1565.266302 1665.492595,1559.285600 1650.390456,1556.938242 1649.460509,1562.918948"/>
    <poly id="1013504108" type="building.yes" color="255,230,230" fill="1" layer="-1.00" shape="301.246466,1793.588490 283.408775,1765.521230 279.241514,1765.066325 205.452278,1838.397663 209.410503,1848.818385 247.983783,1850.033932 248.373101,1839.649549 219.491104,1838.404769 279.548422,1780.940152 292.404283,1800.416039 301.246466,1793.588490"/>
    <poly id="1017476885" type="building.yes" color="255,230,230" fill="1" layer="-1.00" shape="476.267263,303.965754 482.525942,296.750510 476.069669,291.173717 469.810992,298.388970 476.267263,303.965754"/>
    <poly id="1021694354" type="leisure.dog_park" color="207,245,201" fill="1" layer="-2.00" shape="559.027120,2633.952036 587.496220,2644.904455 585.448298,2649.977915 583.463998,2654.893193 555.439600,2644.604676 559.027120,2633.952036"/>
    <poly id="1021946711" type="leisure.dog_park" color="207,245,201" fill="1" layer="-2.00" shape="997.198479,958.863624 1014.493452,958.904246 1055.501153,959.017298 1059.657914,957.356904 1066.727238,950.659941 988.618412,883.774060 972.168622,901.771680 991.423808,956.537201 995.211886,958.721529 997.198479,958.863624"/>
    <poly id="1024858081" type="building.yes" color="255,230,230" fill="1" layer="-1.00" shape="687.776353,2010.512240 689.465641,2006.854984 696.459569,2010.085000 694.776167,2013.730907 687.776353,2010.512240"/>
    <poly id="1024858082" type="building.yes" color="255,230,230" fill="1" layer="-1.00" shape="699.172585,1993.481448 691.413943,1991.759781 692.300040,1987.796535 700.052798,1989.529550 699.172585,1993.481448"/>
    <poly id="1024858083" type="landuse.grass" color="194,194,130" fill="1" layer="-3.00" shape="669.857136,2054.573016 671.364869,2051.657314 672.077049,2049.549280 672.967510,2045.173723 673.983844,2039.546154 677.049909,2040.173738 676.789390,2041.352501 675.401308,2042.659951 674.413228,2044.254123 673.860292,2047.136314 673.890748,2048.004106 675.029243,2048.186934 675.467119,2049.552833 676.793567,2050.252609 678.259232,2049.722183 679.662690,2050.107359 681.205629,2051.958020 682.683362,2051.950717 685.370742,2051.644761 686.720858,2051.764469 686.119684,2054.347592 685.056006,2055.042135 684.607499,2055.882179 684.762355,2059.040289 681.169136,2062.029176 677.569613,2061.074995 678.590543,2058.087266 675.821355,2057.137364 675.542233,2057.069185 671.574927,2055.671208 671.287960,2055.558748 669.857136,2054.573016"/>
    <poly id="1024858084" type="building.yes" color="255,230,230" fill="1" layer="-1.00" shape="674.672555,2059.528062 670.698578,2058.119181 671.574927,2055.671208 675.542233,2057.069185 674.672555,2059.528062"/>
    <poly id="1024858085" type="landuse.grass" color="194,194,130" fill="1" layer="-3.00" shape="695.245284,2037.853176 697.113919,2028.553174 696.158333,2028.564428 695.279652,2028.795768 694.690247,2029.384552 694.505597,2030.037108 694.439482,2030.841453 694.866066,2031.706484 695.362919,2032.602466 695.574011,2033.241134 695.331195,2034.207630 694.968354,2034.621375 694.574424,2035.403806 694.205622,2036.185355 694.206653,2036.931648 694.556330,2037.576593 695.245284,2037.853176"/>
    <poly id="1024858086" type="landuse.grass" color="194,194,130" fill="1" layer="-3.00" shape="696.013751,2011.181150 696.202591,2011.185663 696.442500,2011.032434 696.643192,2010.657797 696.666828,2010.255955 696.610398,2009.723251 696.588501,2009.278450 696.556027,2008.711488 696.538068,2008.199714 696.540481,2007.910009 696.815808,2007.332246 697.241895,2006.749194 697.448123,2006.173856 697.508313,2005.559086 697.227306,2005.078820 696.882312,2004.567382 698.169761,2000.033091 697.737533,1999.903448 697.343350,1999.961837 696.796030,2000.136992 696.332324,2000.364910 695.916883,2000.713665 695.309515,2000.790674 694.818765,2000.785616 694.286846,2000.503522 693.866436,2000.172959 693.369900,1999.644560 693.056703,1999.143146 692.656770,1998.499965 692.412671,1997.996125 691.909888,1997.289718 691.142459,1996.748547 690.309446,1996.309931 689.417094,1996.151879 689.906552,1990.743311 687.975877,1990.031316 687.578395,1990.891847 687.615485,1991.948773 687.791769,1993.925371 687.716995,1994.841413 687.807783,1996.353163 687.559856,1997.353256 686.795201,1998.683381 685.619967,1999.604623 684.895129,2000.097908 684.436004,2000.994020 684.440481,2002.196901 684.531269,2003.708651 684.500399,2004.979608 684.043617,2005.942474 688.737151,2007.961055 689.434658,2006.688983 696.496478,2010.061426 696.013751,2011.181150"/>
    <poly id="1024858087" type="landuse.grass" color="194,194,130" fill="1" layer="-3.00" shape="679.088683,2038.052566 674.060805,2037.438136 674.120209,2036.801115 674.334736,2035.924725 674.882934,2035.237131 675.372646,2034.495893 675.946006,2033.629188 678.002673,2026.283084 680.897030,2023.630621 681.181966,2022.072267 680.572855,2021.024276 680.235554,2019.298392 680.574648,2017.849530 681.321589,2016.731671 681.407040,2015.403102 683.382526,2007.714534 687.725458,2009.778836 687.464223,2010.578889 694.930014,2013.992850 695.603215,2014.537327 696.047048,2015.535424 695.901969,2016.598742 695.327752,2017.799651 693.665542,2021.511651 695.018154,2022.956844 695.560114,2024.062889 695.344447,2024.727672 694.489686,2025.102983 693.349414,2025.945022 693.246000,2026.761816 693.112350,2027.613088 692.691767,2028.173670 692.240062,2029.281166 691.391910,2031.995486 691.625396,2032.555394 691.676611,2033.656381 691.159853,2034.164642 690.455852,2034.534663 690.343355,2035.630257 691.005517,2036.397906 691.667323,2036.976201 692.119104,2037.483891 692.177485,2038.072222 691.807122,2038.809269 686.563469,2037.422650 686.445610,2037.827799 679.617107,2036.084654 679.088683,2038.052566"/>
    <poly id="1024858088" type="landuse.grass" color="194,194,130" fill="1" layer="-3.00" shape="691.653221,1994.814675 691.163286,1994.653640 690.797493,1994.087236 690.746564,1993.532061 690.867618,1992.859459 691.319933,1992.665358 691.283910,1992.176496 691.629011,1992.153246 691.877510,1992.244779 691.925706,1992.722075 692.170195,1993.237040 692.353039,1993.787586 692.169524,1994.651747 691.653221,1994.814675"/>
    <poly id="1024858089" type="landuse.grass" color="194,194,130" fill="1" layer="-3.00" shape="696.171695,1998.655103 695.505059,1998.656218 695.291978,1998.140151 695.320369,1997.515357 695.899984,1996.826664 696.883117,1996.524823 697.867527,1995.721673 698.071095,1994.711998 697.840376,1994.051740 695.758092,1993.679238 693.522635,1993.601733 692.967361,1992.295649 699.227914,1993.624317 699.510730,1992.901482 700.494149,1993.145455 700.653675,1994.465426 700.754785,1995.375296 700.553630,1996.095266 699.773036,1996.612783 699.047452,1996.905585 698.753598,1997.851592 696.986855,1998.047259 696.171695,1998.655103"/>
    <poly id="1024858090" type="landuse.grass" color="194,194,130" fill="1" layer="-3.00" shape="699.911939,1989.100062 699.588237,1988.120029 699.931812,1985.902404 699.770937,1985.440201 699.175314,1985.672747 698.852003,1986.675484 698.509848,1987.678882 697.454420,1988.250601 696.574986,1988.281460 696.037210,1987.832483 695.575736,1986.690196 694.933940,1986.144615 693.777721,1986.174049 692.987296,1986.769887 692.415488,1987.681092 699.961341,1989.432506 699.911939,1989.100062"/>
    <poly id="1024858091" type="landuse.grass" color="194,194,130" fill="1" layer="-3.00" shape="690.390981,1988.955172 688.695425,1988.491129 689.250409,1987.279755 689.490990,1985.711819 689.566009,1983.548174 690.228989,1982.188200 691.323524,1980.400930 692.509022,1979.234267 693.337209,1978.280648 694.051757,1976.239372 693.796937,1974.354643 696.074814,1974.386103 696.463426,1972.734999 694.023075,1972.375062 694.027972,1971.439195 694.521846,1969.561611 694.992296,1967.016496 695.162041,1964.325983 697.729733,1962.041453 705.644189,1964.258932 704.591943,1970.478130 703.650893,1972.337985 702.078943,1972.170358 700.301046,1979.038817 702.252627,1979.271097 702.128023,1980.021798 702.421913,1980.869207 700.284792,1983.773563 695.750732,1983.253170 695.571293,1981.365796 694.188968,1981.224935 692.973374,1981.713161 691.829436,1983.167987 692.808707,1984.548306 691.589425,1985.827548 690.627658,1987.275981 690.390981,1988.955172"/>
    <poly id="1024858092" type="landuse.grass" color="194,194,130" fill="1" layer="-3.00" shape="679.957957,2043.825604 678.955485,2042.680026 678.779910,2041.082137 690.544290,2044.044471 690.381046,2045.665389 690.058203,2046.322795 689.188115,2046.798898 687.961358,2046.251569 686.677961,2046.240911 686.282221,2046.254799 685.861641,2046.815381 685.715820,2047.678220 685.382723,2048.581049 684.730540,2048.993810 684.129529,2048.714142 683.863038,2048.289064 683.861224,2047.520520 684.318816,2046.401677 684.847849,2045.347161 684.677959,2044.807301 683.729117,2044.473004 679.957957,2043.825604"/>
    <poly id="1024858093" type="natural.scrub" color="140,196,107" fill="1" layer="-4.00" shape="675.021073,2066.232794 674.926630,2065.333830 675.017832,2064.706831 675.362996,2064.327122 676.128175,2064.266850 676.671479,2064.515124 676.963877,2064.961571 676.894252,2065.665787 676.495219,2066.481816 675.021073,2066.232794"/>
    <poly id="1024858094" type="natural.scrub" color="140,196,107" fill="1" layer="-4.00" shape="681.169136,2062.029176 680.805414,2062.955358 680.915795,2064.666927 681.485650,2065.671739 682.526046,2065.568391 683.752685,2064.678761 684.216384,2064.450842 685.771800,2064.685876 686.879732,2064.535603 687.223014,2063.743809 687.404182,2062.812894 685.404439,2062.103325 686.760666,2057.020794 687.483403,2057.184797 687.581635,2056.758059 687.489536,2055.925848 687.033888,2055.128674 686.514182,2054.656785 686.119684,2054.347592 685.056006,2055.042135 684.607499,2055.882179 684.762355,2059.040289 681.169136,2062.029176"/>
    <poly id="1024858095" type="natural.scrub" color="140,196,107" fill="1" layer="-4.00" shape="675.029243,2048.186934 676.595242,2048.544126 677.122491,2046.542837 680.186530,2047.471253 679.662690,2050.107359 678.259232,2049.722183 676.793567,2050.252609 675.467119,2049.552833 675.029243,2048.186934"/>
    <poly id="1030691835" type="amenity.parking" color="184,184,179" fill="1" layer="-1.00" shape="622.196070,658.138445 625.538123,654.412061 618.517155,648.141995 615.175493,651.879510 622.196070,658.138445"/>
    <poly id="1030691836" type="amenity.parking" color="184,184,179" fill="1" layer="-1.00" shape="681.649272,694.371426 685.170483,690.371463 618.798089,632.303305 615.276885,636.303322 681.649272,694.371426"/>
    <poly id="1030691837" type="amenity.parking" color="184,184,179" fill="1" layer="-1.00" shape="676.745026,699.656362 657.544313,682.986200 654.496062,686.479468 673.690489,703.149836 676.745026,699.656362"/>
    <poly id="1030691838" type="landuse.construction" color="194,194,130" fill="1" layer="-3.00" shape="602.462447,662.685148 616.317906,646.247531 609.232832,640.302766 595.377377,656.740406 602.462447,662.685148"/>
    <poly id="1030951999" type="building.construction" color="255,230,230" fill="1" layer="-1.00" shape="306.897474,913.754509 306.372769,911.177512 306.712803,908.503269 307.910466,906.066209 309.637879,903.666216 325.420399,884.297014 325.884652,883.723727 326.104663,883.003078 326.159352,882.232546 325.949753,881.460167 325.442860,880.820774 324.730550,880.422529 303.953473,876.909095 301.606034,875.810886 298.844218,872.232056 298.668539,867.236704 300.407818,864.279327 301.917654,862.132047 306.081303,860.671190 310.779951,861.185452 317.998891,862.346287 322.742252,863.237724 323.839435,863.488765 324.891094,863.518621 326.518934,862.937837 326.788822,862.204296 327.179314,861.143474 327.179851,860.085226 321.427890,842.676304 321.334639,841.097807 321.503747,839.287300 321.845220,837.726935 322.591933,836.419664 324.168512,834.559667 325.940953,833.439114 327.989030,832.643049 330.086911,832.368778 332.447397,832.942999 334.240717,834.205518 336.121513,836.166735 336.631049,837.596924 342.982724,857.034402 344.051470,858.444931 345.244076,858.726040 346.233319,858.591008 347.061643,857.815555 358.006349,843.985699 359.730925,842.577222 361.453443,841.826035 363.668409,841.124373 365.945689,841.300522 367.852173,842.024392 369.278308,843.221857 370.510415,844.626650 371.434169,846.565827 371.763770,848.425636 371.215505,851.441368 370.062112,854.244448 357.679518,869.405837 357.086780,870.440348 357.337985,871.322657 357.590363,872.238343 358.097252,872.877740 374.152025,887.195413 375.166343,887.415962 375.799754,887.538507 376.334640,887.363756 377.107926,886.991257 389.366792,872.068196 390.120921,871.150550 391.852951,869.775242 393.833078,869.015013 396.099811,868.712560 398.489337,869.218959 400.166032,870.207120 401.541046,871.740570 402.837423,873.900581 403.162317,875.626886 403.202036,877.831062 402.678269,879.754282 401.570912,881.898519 390.416903,895.501697 389.733432,896.639645 390.010909,897.732679 390.238146,898.649250 390.742708,899.043669 391.448725,899.442145 422.897348,904.808822 424.996230,905.459119 426.532998,907.120562 427.712261,909.707986 427.842977,912.532763 427.205353,914.259474 394.136243,955.322445 393.018461,956.453379 391.438907,957.333203 389.939523,957.809195 388.690346,957.886520 387.301010,957.734847 385.674140,957.268486 384.518976,956.261999 383.477744,954.917330 382.951679,953.911010 372.832073,922.842879 372.371572,921.912230 371.528525,921.373763 370.403463,921.223944 369.392230,921.448859 350.722475,944.227767 348.857368,945.574355 346.549384,946.312716 344.015305,946.346114 341.972219,945.493389 339.643748,943.859811 338.596264,942.158915 338.266653,940.299108 338.074465,938.590419 338.356719,936.419478 338.712807,934.201384 357.504694,911.317877 357.888148,910.056799 357.908765,908.674806 357.276265,907.683370 340.723976,893.171605 339.697091,892.951506 338.815454,893.105036 337.729501,894.067777 318.649729,917.351367 315.923449,918.538884 313.104996,918.894199 310.509726,918.261412 308.141988,916.406445 307.131771,914.871335 306.897474,913.754509"/>
    <poly id="1033464016" type="landuse.grass" color="194,194,130" fill="1" layer="-3.00" shape="1893.604444,1783.221067 1895.094460,1774.892860 1891.986782,1774.332704 1892.677812,1770.153771 1899.158952,1771.320531 1903.003688,1772.456545 1913.755820,1774.176413 1914.304674,1774.224142 1916.204062,1774.403088 1922.330687,1775.504248 1925.398431,1775.820756 1934.012444,1777.370033 1936.994388,1778.112821 1943.884214,1779.276561 1946.277075,1779.538598 1955.333517,1781.150492 1956.532032,1781.431818 1957.812511,1781.899657 1963.920267,1783.001531 1965.286246,1782.853747 1975.807437,1784.626358 1980.391383,1785.859248 1998.484582,1789.061602 2004.666716,1789.771077 2003.034637,1800.710719 1893.604444,1783.221067"/>
    <poly id="1033464017" type="building.shed" color="255,230,230" fill="1" layer="-1.00" shape="1819.156036,1755.804790 1813.236043,1754.317846 1814.202860,1750.474603 1820.122857,1751.961548 1819.156036,1755.804790"/>
    <poly id="1033464018" type="amenity.car_wash" color="237,199,199" fill="1" layer="-1.00" shape="1806.152923,1772.164326 1804.392587,1771.824638 1801.537333,1771.289169 1803.349293,1761.735547 1804.033172,1761.867673 1804.888003,1757.337704 1807.596067,1757.800329 1808.826010,1758.080520 1806.152923,1772.164326"/>
    <poly id="1033464018#1" type="building.service" color="255,230,230" fill="1" layer="-1.00" shape="1806.152923,1772.164326 1804.392587,1771.824638 1801.537333,1771.289169 1803.349293,1761.735547 1804.033172,1761.867673 1804.888003,1757.337704 1807.596067,1757.800329 1808.826010,1758.080520 1806.152923,1772.164326"/>
    <poly id="1033464019" type="building.retail" color="255,230,230" fill="1" layer="-1.00" shape="1808.746353,1772.586388 1806.152923,1772.164326 1808.826010,1758.080520 1810.583434,1753.641644 1813.236043,1754.317846 1819.156036,1755.804790 1816.614593,1766.987840 1814.056691,1766.141251 1811.934937,1773.121390 1808.746353,1772.586388"/>
    <poly id="1034780788" type="amenity.recycling" color="237,199,199" fill="1" layer="-1.00" shape="1640.550791,1760.881944 1641.379970,1753.456660 1643.760306,1753.718969 1642.931124,1761.144252 1640.550791,1760.881944"/>
    <poly id="1034780788#1" type="building.shed" color="255,230,230" fill="1" layer="-1.00" shape="1640.550791,1760.881944 1641.379970,1753.456660 1643.760306,1753.718969 1642.931124,1761.144252 1640.550791,1760.881944"/>
    <poly id="1034793751" type="leisure.pitch" color="207,245,201" fill="1" layer="-2.00" shape="690.914672,1771.944467 727.876890,1756.634502 716.680167,1729.713910 679.717748,1745.023967 690.914672,1771.944467"/>
    <poly id="1034793751#1" type="sport.soccer" color="79,230,125" fill="1" layer="-2.00" shape="690.914672,1771.944467 727.876890,1756.634502 716.680167,1729.713910 679.717748,1745.023967 690.914672,1771.944467"/>
    <poly id="1034793752" type="leisure.pitch" color="207,245,201" fill="1" layer="-2.00" shape="719.391623,1686.521108 743.067009,1654.255709 763.510414,1669.178157 739.835363,1701.454570 719.391623,1686.521108"/>
    <poly id="1034793752#1" type="sport.soccer" color="79,230,125" fill="1" layer="-2.00" shape="719.391623,1686.521108 743.067009,1654.255709 763.510414,1669.178157 739.835363,1701.454570 719.391623,1686.521108"/>
    <poly id="1034793753" type="leisure.pitch" color="207,245,201" fill="1" layer="-2.00" shape="746.107793,1649.492856 769.783594,1617.227610 790.221171,1632.161530 766.551597,1664.426445 746.107793,1649.492856"/>
    <poly id="1034793753#1" type="sport.soccer" color="79,230,125" fill="1" layer="-2.00" shape="746.107793,1649.492856 769.783594,1617.227610 790.221171,1632.161530 766.551597,1664.426445 746.107793,1649.492856"/>
    <poly id="1035389062" type="building.shed" color="255,230,230" fill="1" layer="-1.00" shape="1717.373021,1661.471816 1718.416653,1654.239586 1720.647817,1654.551694 1720.521007,1655.424963 1719.610851,1661.794830 1717.373021,1661.471816"/>
    <poly id="1036052027" type="building.service" color="255,230,230" fill="1" layer="-1.00" shape="1779.725802,1465.824311 1779.884594,1464.604619 1782.209696,1464.902352 1782.050903,1466.122044 1779.725802,1465.824311"/>
    <poly id="1036052027#1" type="man_made.street_cabinet" color="255,230,230" fill="1" layer="-1.00" shape="1779.725802,1465.824311 1779.884594,1464.604619 1782.209696,1464.902352 1782.050903,1466.122044 1779.725802,1465.824311"/>
    <poly id="1040555610" type="man_made.courtyard" color="255,230,230" fill="1" layer="-1.00" shape="1309.241350,1679.992694 1307.742420,1664.817856 1323.486768,1667.186135 1341.825034,1669.987382 1360.465140,1672.967526 1377.659682,1675.619510 1394.961320,1678.457187 1413.358348,1681.323512 1430.709024,1684.126198 1446.200376,1686.459191 1448.166925,1686.758121 1466.869112,1689.179587 1475.208187,1690.949217 1473.506350,1703.818626 1463.675594,1702.379554 1442.906016,1699.651557 1423.339590,1696.436078 1421.842190,1696.243307 1403.416476,1693.634152 1383.313611,1690.548975 1381.778903,1690.368660 1362.582053,1687.652940 1342.840249,1684.822674 1324.442723,1682.123749 1309.241350,1679.992694"/>
    <poly id="1043288498" type="building.garage" color="255,230,230" fill="1" layer="-1.00" shape="1698.740003,1329.518957 1696.314580,1335.729992 1701.443722,1337.790186 1703.951987,1331.609684 1698.740003,1329.518957"/>
    <poly id="1044053453" type="amenity.bicycle_parking" color="237,199,199" fill="1" layer="-1.00" shape="1200.950579,2147.212441 1208.921327,2149.439974 1211.491495,2140.928868 1215.302382,2141.998619 1216.365176,2138.040461 1220.780306,2138.944275 1223.091507,2133.817403 1244.092176,2139.788815 1222.205037,2171.231469 1210.792128,2167.865573 1197.756373,2164.133181 1199.875916,2156.584658 1198.330852,2156.104020 1200.950579,2147.212441"/>
    <poly id="1044053461" type="building.house" color="255,230,230" fill="1" layer="-1.00" shape="1215.083424,2112.899617 1238.546921,2120.054741 1240.981513,2120.793909 1250.343469,2108.848407 1218.638836,2101.268510 1215.083424,2112.899617"/>
    <poly id="1047115932" type="building.roof" color="255,230,230" fill="1" layer="-1.00" shape="1377.428511,2013.255106 1378.122790,2045.010847 1381.063733,2044.941525 1380.369864,2013.196910 1377.428511,2013.255106"/>
    <poly id="1049330254" type="amenity.bicycle_parking" color="237,199,199" fill="1" layer="-1.00" shape="1348.363234,2192.452511 1347.729494,2177.915777 1355.943990,2177.584188 1356.000513,2191.261097 1353.666321,2192.133538 1348.363234,2192.452511"/>
    <poly id="1050242374" type="amenity.recycling" color="237,199,199" fill="1" layer="-1.00" shape="1244.827711,1393.194192 1246.819778,1390.440019 1247.835184,1389.257190 1253.219468,1382.775355 1260.273976,1382.506489 1260.497998,1389.995308 1258.648603,1389.993117 1258.758450,1392.595839 1244.827711,1393.194192"/>
    <poly id="1050242377" type="building.yes" color="255,230,230" fill="1" layer="-1.00" shape="1228.198591,1219.625997 1243.118102,1232.181810 1240.792012,1235.460058 1237.267747,1239.192341 1233.148572,1235.983454 1232.255286,1237.061762 1230.211209,1235.451209 1231.041668,1234.375096 1225.905754,1230.332906 1225.010523,1231.355588 1223.037496,1229.798249 1223.832591,1228.790207 1221.030865,1226.560074 1221.428024,1226.044927 1228.198591,1219.625997"/>
    <poly id="1050242378" type="building.yes" color="255,230,230" fill="1" layer="-1.00" shape="1235.725991,1240.794579 1231.225963,1237.487616 1228.469936,1240.702927 1232.417801,1244.229695 1235.725991,1240.794579"/>
    <poly id="1050242379" type="building.yes" color="255,230,230" fill="1" layer="-1.00" shape="1215.946025,1236.573721 1216.551409,1235.717119 1214.947000,1234.447654 1208.330233,1242.565520 1215.958130,1248.614724 1222.780321,1254.469326 1229.113803,1246.884926 1215.946025,1236.573721"/>
    <poly id="1050242380" type="building.garages" color="255,230,230" fill="1" layer="-1.00" shape="1239.151790,1268.255362 1223.189509,1255.557797 1226.263008,1251.707590 1242.231186,1264.393821 1239.151790,1268.255362"/>
    <poly id="1050242381" type="building.shed" color="255,230,230" fill="1" layer="-1.00" shape="1231.921356,1263.317280 1239.656828,1269.206813 1236.769479,1272.983669 1229.027726,1267.094359 1231.921356,1263.317280"/>
    <poly id="1050242382" type="building.apartments" color="255,230,230" fill="1" layer="-1.00" shape="1232.417801,1244.229695 1243.379268,1252.969476 1244.049207,1271.414770 1245.419224,1271.378019 1245.616913,1274.334123 1257.317632,1283.170623 1255.985748,1248.485308 1254.579777,1245.693968 1240.792012,1235.460058 1237.267747,1239.192341 1235.725991,1240.794579 1232.417801,1244.229695"/>
    <poly id="1050244499" type="building.apartments" color="255,230,230" fill="1" layer="-1.00" shape="1241.176552,1097.276603 1252.386433,1097.096421 1252.696191,1104.158952 1239.506304,1104.742520 1223.368884,1105.585118 1223.249181,1100.721494 1220.665726,1100.778392 1220.164825,1093.288116 1220.216046,1092.773924 1225.973564,1092.639482 1226.197291,1097.599722 1241.176552,1097.276603"/>
    <poly id="1050244500" type="building.apartments" color="255,230,230" fill="1" layer="-1.00" shape="1235.034074,1042.307975 1218.604914,1058.744448 1214.867274,1055.477675 1221.394158,1048.198415 1209.702494,1037.300919 1203.030830,1044.217666 1194.310100,1035.889734 1209.233190,1020.998471 1235.034074,1042.307975"/>
    <poly id="1050244501" type="building.apartments" color="255,230,230" fill="1" layer="-1.00" shape="1252.696191,1104.158952 1252.620063,1106.300329 1253.498103,1142.939713 1249.479903,1142.801682 1237.862858,1143.207754 1223.235057,1142.783422 1222.440476,1125.812855 1228.104216,1125.336379 1228.651594,1137.035630 1241.229938,1136.595931 1239.916971,1118.830327 1232.413286,1118.858706 1231.959020,1110.542502 1239.751466,1110.136437 1239.607660,1106.922250 1239.506304,1104.742520 1252.696191,1104.158952"/>
    <poly id="1050244502" type="building.apartments" color="255,230,230" fill="1" layer="-1.00" shape="1237.862858,1143.207754 1249.479903,1142.801682 1249.809841,1154.040690 1250.495701,1179.781567 1246.684747,1179.992750 1242.235279,1180.293090 1239.369921,1180.382112 1238.326261,1154.664880 1237.862858,1143.207754"/>
    <poly id="1050244503" type="building.apartments" color="255,230,230" fill="1" layer="-1.00" shape="1246.684747,1179.992750 1248.140933,1221.112146 1252.706574,1224.316581 1258.634391,1224.020272 1257.278310,1179.822973 1250.495701,1179.781567 1246.684747,1179.992750"/>
    <poly id="1050261932" type="leisure.playground" color="207,245,201" fill="1" layer="-2.00" shape="1419.540011,1565.472267 1421.691441,1553.411432 1414.520776,1552.146907 1411.314083,1553.261410 1409.983993,1562.363976 1411.848061,1564.949994 1419.540011,1565.472267"/>
    <poly id="1050262782" type="building.house" color="255,230,230" fill="1" layer="-1.00" shape="1541.374516,1558.947199 1539.370114,1570.724351 1527.480593,1569.056201 1529.082581,1557.103719 1533.876450,1557.671626 1541.374516,1558.947199"/>
    <poly id="1050264159" type="leisure.pitch" color="207,245,201" fill="1" layer="-2.00" shape="1583.396990,1431.442126 1598.629671,1433.550802 1597.009497,1445.169704 1581.776854,1443.061034 1583.396990,1431.442126"/>
    <poly id="1050264159#1" type="sport.basketball" color="79,230,125" fill="1" layer="-2.00" shape="1583.396990,1431.442126 1598.629671,1433.550802 1597.009497,1445.169704 1581.776854,1443.061034 1583.396990,1431.442126"/>
    <poly id="1050986754" type="building.shed" color="255,230,230" fill="1" layer="-1.00" shape="1929.009845,1855.907531 1927.645183,1861.513428 1932.313527,1862.643075 1933.678194,1857.037180 1929.009845,1855.907531"/>
    <poly id="1055193376" type="building.service" color="255,230,230" fill="1" layer="-1.00" shape="309.459080,2350.063606 310.765916,2350.385224 311.348344,2347.992063 310.041507,2347.670444 309.459080,2350.063606"/>
    <poly id="1055384564" type="landuse.grass" color="194,194,130" fill="1" layer="-3.00" shape="509.578671,2221.007750 505.256557,2222.217845 503.497232,2223.337893 499.821619,2217.173360 499.556894,2215.366961 500.040637,2214.815278 504.418375,2214.472087 495.217023,2182.602919 494.593917,2180.441518 489.438358,2162.588206 485.415143,2162.462241 483.838739,2160.913583 483.661421,2149.245859 485.704559,2148.505706 486.792500,2150.650771 488.643101,2151.053590 497.214930,2179.681063 509.578671,2221.007750"/>
    <poly id="1055384565" type="landuse.grass" color="194,194,130" fill="1" layer="-3.00" shape="425.590246,1819.236332 460.579066,1830.850169 458.253716,1838.061019 418.398809,1826.685090 422.106829,1822.845369 425.590246,1819.236332"/>
    <poly id="1055384566" type="landuse.grass" color="194,194,130" fill="1" layer="-3.00" shape="469.396349,1834.227411 500.888058,1844.772551 499.134999,1850.013899 467.263487,1840.651743 469.396349,1834.227411"/>
    <poly id="1055398906" type="leisure.garden" color="207,245,201" fill="1" layer="-2.00" shape="278.380266,2322.573735 294.507974,2326.584477 300.748090,2301.602256 284.614018,2297.591711 278.380266,2322.573735"/>
    <poly id="1055420345" type="amenity.parking" color="184,184,179" fill="1" layer="-1.00" shape="294.925829,2388.682502 293.753193,2393.068091 291.213741,2392.388838 288.687241,2391.720269 286.351132,2391.100699 283.963990,2390.460647 281.507363,2389.811902 279.253689,2389.211713 276.815904,2388.562307 274.352602,2387.902662 275.525221,2383.517068 277.982243,2384.176935 280.413358,2384.815436 282.692550,2385.425867 285.155851,2386.085517 287.548885,2386.714224 289.897951,2387.344478 292.398936,2388.002806 294.925829,2388.682502"/>
    <poly id="1055420346" type="amenity.parking_space" color="237,199,199" fill="1" layer="-1.00" shape="292.398936,2388.002806 291.213741,2392.388838 293.753193,2393.068091 294.925829,2388.682502 292.398936,2388.002806"/>
    <poly id="1055420347" type="amenity.parking_space" color="237,199,199" fill="1" layer="-1.00" shape="288.687241,2391.720269 291.213741,2392.388838 292.398936,2388.002806 289.897951,2387.344478 288.687241,2391.720269"/>
    <poly id="1055420348" type="amenity.parking_space" color="237,199,199" fill="1" layer="-1.00" shape="286.351132,2391.100699 287.548885,2386.714224 289.897951,2387.344478 288.687241,2391.720269 286.351132,2391.100699"/>
    <poly id="1055420349" type="amenity.parking_space" color="237,199,199" fill="1" layer="-1.00" shape="283.963990,2390.460647 285.155851,2386.085517 287.548885,2386.714224 286.351132,2391.100699 283.963990,2390.460647"/>