<?xml version="1.0" encoding="utf-8"?>
<!-- generated on 2022-11-23 13:51:31.839518 by osmWebWizard.py UNKNOWN
<configuration>
    <allow-fringe.min-length value="1000.0"/>
    <end value="3600"/>
    <fringe-factor value="5.0"/>
    <fringe-start-attributes value="departSpeed=&quot;max&quot;"/>
    <lanes value="True"/>
    <min-distance value="300.0"/>
    <net-file value="/Users/hjalte/Documents/DTU/Model Based System Engineering/SUMO/2022-11-23-13-50-57/osm.net.xml"/>
    <period value="0.5253658082720568"/>
    <route-file value="/Users/hjalte/Documents/DTU/Model Based System Engineering/SUMO/2022-11-23-13-50-57/osm.passenger.rou.xml"/>
    <trip-attributes value="departLane=&quot;best&quot;"/>
    <output-trip-file value="/Users/hjalte/Documents/DTU/Model Based System Engineering/SUMO/2022-11-23-13-50-57/osm.passenger.trips.xml"/>
    <prefix value="veh"/>
    <validate value="True"/>
    <vehicle-class value="passenger"/>
</configuration>
-->
<!-- generated on 2022-11-23 13:51:29 by Eclipse SUMO duarouter Version 1.14.1
<configuration xmlns:xsi="http://www.w3.org/2001/XMLSchema-instance" xsi:noNamespaceSchemaLocation="http://sumo.dlr.de/xsd/duarouterConfiguration.xsd">

    <input>
        <net-file value="/Users/hjalte/Documents/DTU/Model%20Based%20System%20Engineering/SUMO/2022-11-23-13-50-57/osm.net.xml"/>
        <route-files value="/Users/hjalte/Documents/DTU/Model%20Based%20System%20Engineering/SUMO/2022-11-23-13-50-57/osm.passenger.trips.xml"/>
    </input>

    <output>
        <output-file value="/Users/hjalte/Documents/DTU/Model%20Based%20System%20Engineering/SUMO/2022-11-23-13-50-57/osm.passenger.trips.xml.tmp"/>
        <alternatives-output value="NUL"/>
        <write-trips value="true"/>
    </output>

    <time>
        <begin value="0"/>
        <end value="3600"/>
    </time>

    <report>
        <no-warnings value="true"/>
        <ignore-errors value="true"/>
        <no-step-log value="true"/>
    </report>

</configuration>
-->
<routes xmlns:xsi="http://www.w3.org/2001/XMLSchema-instance" xsi:noNamespaceSchemaLocation="http://sumo.dlr.de/xsd/routes_file.xsd">
 <vType id="veh_passenger" vClass="passenger"/>
 <trip depart="0.00" departLane="best" departSpeed="max" from="319420605" id="veh0" to="-126704831#2" type="veh_petrol"/>
 <trip depart="0.53" departLane="best" departSpeed="max" from="-4356299" id="veh1" to="-4327655" type="veh_ev"/>
 <trip depart="1.05" departLane="best" from="4327664#4" id="veh2" to="407339943#0" type="veh_ev"/>
 <trip depart="1.58" departLane="best" from="645950919#0" id="veh3" to="-25494569#3" type="veh_petrol"/>
 <trip depart="2.10" departLane="best" departSpeed="max" from="-8139089" id="veh4" to="-133061555#4" type="veh_hybrid"/>
 <trip depart="2.63" departLane="best" from="-4240359#3" id="veh5" to="211652919#0" type="veh_diesel"/>
 <trip depart="3.15" departLane="best" from="-122597276#13" id="veh6" to="-4296381#14" type="veh_ev"/>
 <trip depart="3.68" departLane="best" from="34694060#3" id="veh7" to="25494726" type="veh_ev"/>
 <trip depart="4.20" departLane="best" departSpeed="max" from="-4240365#9" id="veh8" to="26071465" type="veh_petrol"/>
 <trip depart="4.73" departLane="best" departSpeed="max" from="4742618#0" id="veh9" to="-118988011#6" type="veh_diesel"/>
 <trip depart="5.25" departLane="best" departSpeed="max" from="4742350#0" id="veh10" to="4256887#0" type="veh_hybrid"/>
 <trip depart="5.78" departLane="best" departSpeed="max" from="-490747651" id="veh11" to="-34781959" type="veh_petrol"/>
 <trip depart="6.30" departLane="best" from="801620545" id="veh12" to="-682263351#4" type="veh_petrol"/>
 <trip depart="6.83" departLane="best" from="-25419299#1" id="veh13" to="-25584743#3" type="veh_petrol"/>
 <trip depart="7.36" departLane="best" from="497445470#3" id="veh14" to="26549274#0" type="veh_diesel"/>
 <trip depart="7.88" departLane="best" from="4742428#0" id="veh15" to="4327579#0" type="veh_hybrid"/>
 <trip depart="8.41" departLane="best" from="241250197" id="veh16" to="8124751#0" type="veh_petrol"/>
 <trip depart="8.93" departLane="best" from="-691010230#1" id="veh17" to="25495368#2" type="veh_diesel"/>
 <trip depart="9.46" departLane="best" from="48877140#0" id="veh18" to="294263239-AddedOffRampEdge" type="veh_hybrid"/>
 <trip depart="9.98" departLane="best" from="50424614-AddedOffRampEdge" id="veh19" to="25584907#7" type="veh_hybrid"/>
 <trip depart="10.51" departLane="best" from="4296283#0" id="veh20" to="-198659941" type="veh_petrol"/>
 <trip depart="11.03" departLane="best" departSpeed="max" from="-4256888#1" id="veh21" to="-4742350#2" type="veh_diesel"/>
 <trip depart="11.56" departLane="best" departSpeed="max" from="-240753515#2" id="veh22" to="-432828149" type="veh_diesel"/>
 <trip depart="12.08" departLane="best" departSpeed="max" from="-25494761#2" id="veh23" to="-4711176" type="veh_diesel"/>
 <trip depart="12.61" departLane="best" from="31101139#3" id="veh24" to="-801453455" type="veh_hybrid"/>
 <trip depart="13.13" departLane="best" from="-662025868" id="veh25" to="-4321034#5" type="veh_diesel"/>
 <trip depart="13.66" departLane="best" departSpeed="max" from="-4327668#4" id="veh26" to="757310228#0" type="veh_hybrid"/>
 <trip depart="14.18" departLane="best" departSpeed="max" from="34256383" id="veh27" to="2742699#0" type="veh_petrol"/>
 <trip depart="14.71" departLane="best" from="-3100848#17" id="veh28" to="4327564#15" type="veh_petrol"/>
 <trip depart="15.24" departLane="best" from="-2907048#10" id="veh29" to="-8140693#1" type="veh_petrol"/>
 <trip depart="15.76" departLane="best" from="871906592" id="veh30" to="32602824" type="veh_petrol"/>
 <trip depart="16.29" departLane="best" from="25010931#0" id="veh31" to="4232399" type="veh_petrol"/>
 <trip depart="16.81" departLane="best" from="497270687#15" id="veh32" to="4544710" type="veh_hybrid"/>
 <trip depart="17.34" departLane="best" from="-4256919#2" id="veh33" to="-141779574#7" type="veh_petrol"/>
 <trip depart="17.86" departLane="best" from="-4711180#3" id="veh34" to="-4557583#1" type="veh_petrol"/>
 <trip depart="18.39" departLane="best" from="-4231658#10" id="veh35" to="799504266" type="veh_petrol"/>
 <trip depart="18.91" departLane="best" from="595858260#7" id="veh36" to="-497270687#8" type="veh_ev"/>
 <trip depart="19.44" departLane="best" from="34781959" id="veh37" to="1016428511" type="veh_diesel"/>
 <trip depart="19.96" departLane="best" from="742672410#1" id="veh38" to="144020627#9" type="veh_diesel"/>
 <trip depart="20.49" departLane="best" from="-4327660#3" id="veh39" to="-4485325#1" type="veh_hybrid"/>
 <trip depart="21.01" departLane="best" from="25419081#4" id="veh40" to="-4557547#1" type="veh_petrol"/>
 <trip depart="21.54" departLane="best" departSpeed="max" from="25594782" id="veh41" to="668566989" type="veh_hybrid"/>
 <trip depart="22.07" departLane="best" from="-800169394#3" id="veh42" to="-4327644#0" type="veh_petrol"/>
 <trip depart="22.59" departLane="best" from="935125125" id="veh43" to="22983452#16" type="veh_petrol"/>
 <trip depart="23.12" departLane="best" departSpeed="max" from="-25419182#4" id="veh44" to="-198659943#0" type="veh_petrol"/>
 <trip depart="23.64" departLane="best" departSpeed="max" from="-25495432" id="veh45" to="305768748" type="veh_diesel"/>
 <trip depart="24.17" departLane="best" departSpeed="max" from="4710552#0" id="veh46" to="118998425#3" type="veh_petrol"/>
 <trip depart="24.69" departLane="best" departSpeed="max" from="-198889409#3" id="veh47" to="-846982040#3" type="veh_petrol"/>
 <trip depart="25.22" departLane="best" from="923502545" id="veh48" to="24776738" type="veh_petrol"/>
 <trip depart="25.74" departLane="best" from="803164392#0" id="veh49" to="502989997#1" type="veh_hybrid"/>
 <trip depart="26.27" departLane="best" from="-118988014#9" id="veh50" to="4296425#2" type="veh_hybrid"/>
 <trip depart="26.79" departLane="best" from="4232391#0" id="veh51" to="25419302" type="veh_diesel"/>
 <trip depart="27.32" departLane="best" departSpeed="max" from="-4327668#4" id="veh52" to="329740876" type="veh_hybrid"/>
 <trip depart="27.84" departLane="best" departSpeed="max" from="-25526590#6" id="veh53" to="122312049#1" type="veh_petrol"/>
 <trip depart="28.37" departLane="best" from="118987255#3" id="veh54" to="801453569#0" type="veh_hybrid"/>
 <trip depart="28.90" departLane="best" from="595858260#4" id="veh55" to="-4557549#3" type="veh_diesel"/>
 <trip depart="29.42" departLane="best" from="156161864#0" id="veh56" to="-4240365#1" type="veh_petrol"/>
 <trip depart="29.95" departLane="best" from="719598808#5" id="veh57" to="540388541" type="veh_hybrid"/>
 <trip depart="30.47" departLane="best" from="-4545147#1" id="veh58" to="321565953#0" type="veh_petrol"/>
 <trip depart="31.00" departLane="best" from="273215211" id="veh59" to="-34776496" type="veh_diesel"/>
 <trip depart="31.52" departLane="best" from="4485560#10" id="veh60" to="25446124#0" type="veh_petrol"/>
 <trip depart="32.05" departLane="best" from="4557552#0" id="veh61" to="24931534#9" type="veh_petrol"/>
 <trip depart="32.57" departLane="best" departSpeed="max" from="-1002325035#1" id="veh62" to="-52596262#5" type="veh_petrol"/>
 <trip depart="33.10" departLane="best" departSpeed="max" from="-122312043" id="veh63" to="750596654#0" type="veh_ev"/>
 <trip depart="33.62" departLane="best" from="603722758#2" id="veh64" to="490794363" type="veh_petrol"/>
 <trip depart="34.15" departLane="best" departSpeed="max" from="-4557586#1" id="veh65" to="-199311326" type="veh_petrol"/>
 <trip depart="34.67" departLane="best" from="600914966#0" id="veh66" to="801453350" type="veh_petrol"/>
 <trip depart="35.20" departLane="best" departSpeed="max" from="-24776738" id="veh67" to="198889411#0" type="veh_petrol"/>
 <trip depart="35.72" departLane="best" departSpeed="max" from="-198984151#2" id="veh68" to="4480136#0" type="veh_petrol"/>
 <trip depart="36.25" departLane="best" departSpeed="max" from="4521833#0" id="veh69" to="-2906435#4" type="veh_petrol"/>
 <trip depart="36.78" departLane="best" from="122597289#9" id="veh70" to="25494999" type="veh_petrol"/>
 <trip depart="37.30" departLane="best" from="-4327661#3" id="veh71" to="552554204" type="veh_hybrid"/>
 <trip depart="37.83" departLane="best" departSpeed="max" from="-8140626#2" id="veh72" to="-43255862#15" type="veh_petrol"/>
 <trip depart="38.35" departLane="best" departSpeed="max" from="24332851#0" id="veh73" to="4327581#0" type="veh_hybrid"/>
 <trip depart="38.88" departLane="best" departSpeed="max" from="-382952324#1" id="veh74" to="-490794367#1" type="veh_ev"/>
 <trip depart="39.40" departLane="best" from="921524985#0" id="veh75" to="34630185#6" type="veh_petrol"/>
 <trip depart="39.93" departLane="best" from="1025631821#0" id="veh76" to="24332851#4" type="veh_hybrid"/>
 <trip depart="40.45" departLane="best" from="-25584729#9" id="veh77" to="-4327657#1" type="veh_petrol"/>
 <trip depart="41.50" departLane="best" departSpeed="max" from="-4266792#1" id="veh79" to="-4327645#2" type="veh_petrol"/>
 <trip depart="42.03" departLane="best" from="-199010331#9" id="veh80" to="3100852#8" type="veh_petrol"/>
 <trip depart="42.55" departLane="best" from="-4256891#2" id="veh81" to="688894351" type="veh_ev"/>
 <trip depart="43.08" departLane="best" from="502458414#0" id="veh82" to="-24350694" type="veh_hybrid"/>
 <trip depart="43.61" departLane="best" from="-4292187#9" id="veh83" to="38242960#3" type="veh_diesel"/>
 <trip depart="44.13" departLane="best" departSpeed="max" from="-4232399" id="veh84" to="-30104102#1" type="veh_petrol"/>
 <trip depart="44.66" departLane="best" from="7703238#0" id="veh85" to="25584835" type="veh_petrol"/>
 <trip depart="45.18" departLane="best" from="122597274#0" id="veh86" to="4557547#2" type="veh_petrol"/>
 <trip depart="45.71" departLane="best" from="4742430#1" id="veh87" to="-4292086#0" type="veh_petrol"/>
 <trip depart="46.23" departLane="best" from="-25494440#0" id="veh88" to="121411531#1" type="veh_petrol"/>
 <trip depart="46.76" departLane="best" departSpeed="max" from="-8140626#2" id="veh89" to="155986588" type="veh_ev"/>
 <trip depart="47.28" departLane="best" from="4327645#0" id="veh90" to="39378939#1" type="veh_hybrid"/>
 <trip depart="47.81" departLane="best" from="8147159#1" id="veh91" to="-25584823#0" type="veh_diesel"/>
 <trip depart="48.33" departLane="best" from="-801453401#2" id="veh92" to="-682295096#2" type="veh_hybrid"/>
 <trip depart="48.86" departLane="best" from="50424614" id="veh93" to="-4485560#3" type="veh_petrol"/>
 <trip depart="49.38" departLane="best" departSpeed="max" from="-34781905#3" id="veh94" to="125514679" type="veh_petrol"/>
 <trip depart="49.91" departLane="best" departSpeed="max" from="-8139089" id="veh95" to="-4711181#4" type="veh_diesel"/>
 <trip depart="50.44" departLane="best" departSpeed="max" from="-4313294" id="veh96" to="749266346#3" type="veh_petrol"/>
 <trip depart="50.96" departLane="best" from="11122804#5" id="veh97" to="503067235#0" type="veh_diesel"/>
 <trip depart="52.01" departLane="best" from="941900656" id="veh99" to="490794371#0" type="veh_petrol"/>
 <trip depart="52.54" departLane="best" from="803164379" id="veh100" to="750596649" type="veh_petrol"/>
 <trip depart="53.06" departLane="best" from="502184460#0" id="veh101" to="-38558492#6" type="veh_ev"/>
 <trip depart="53.59" departLane="best" departSpeed="max" from="133061553#0" id="veh102" to="-4327564#10" type="veh_petrol"/>
 <trip depart="54.11" departLane="best" departSpeed="max" from="-800169421" id="veh103" to="-208799001#4" type="veh_petrol"/>
 <trip depart="54.64" departLane="best" departSpeed="max" from="-691049329" id="veh104" to="8140626#0" type="veh_petrol"/>
 <trip depart="55.16" departLane="best" from="-4327663" id="veh105" to="4557547#2" type="veh_petrol"/>
 <trip depart="55.69" departLane="best" from="118988011#10" id="veh106" to="119141682" type="veh_petrol"/>
 <trip depart="56.21" departLane="best" from="801620545" id="veh107" to="921524988#5" type="veh_petrol"/>
 <trip depart="56.74" departLane="best" departSpeed="max" from="24944532#0" id="veh108" to="4296415#3" type="veh_petrol"/>
 <trip depart="57.26" departLane="best" from="-26492493" id="veh109" to="-48304686" type="veh_diesel"/>
 <trip depart="57.79" departLane="best" from="803164378#1" id="veh110" to="25676160#11" type="veh_petrol"/>
 <trip depart="58.32" departLane="best" from="24350695#1" id="veh111" to="43409517#0" type="veh_petrol"/>
 <trip depart="58.84" departLane="best" departSpeed="max" from="-198659943#1" id="veh112" to="25927419" type="veh_hybrid"/>
 <trip depart="59.37" departLane="best" departSpeed="max" from="-240753515#2" id="veh113" to="-4256890" type="veh_petrol"/>
 <trip depart="59.89" departLane="best" departSpeed="max" from="26492391#0" id="veh114" to="3993570#0" type="veh_diesel"/>
 <trip depart="60.42" departLane="best" from="-4292092#3" id="veh115" to="-26492499" type="veh_hybrid"/>
 <trip depart="60.94" departLane="best" from="610894837" id="veh116" to="-4485325#1" type="veh_ev"/>
 <trip depart="61.47" departLane="best" departSpeed="max" from="26492391#0" id="veh117" to="29553576#2" type="veh_petrol"/>
 <trip depart="61.99" departLane="best" from="-8137741#9" id="veh118" to="25769497#0" type="veh_diesel"/>
 <trip depart="63.04" departLane="best" departSpeed="max" from="-38655522" id="veh120" to="4296406#7" type="veh_hybrid"/>
 <trip depart="63.57" departLane="best" from="-4292195#1" id="veh121" to="1025631764#0" type="veh_petrol"/>
 <trip depart="64.09" departLane="best" departSpeed="max" from="38695466" id="veh122" to="-48304696#1" type="veh_diesel"/>
 <trip depart="64.62" departLane="best" departSpeed="max" from="-4711182#1" id="veh123" to="4363090" type="veh_ev"/>
 <trip depart="65.15" departLane="best" departSpeed="max" from="-199161661" id="veh124" to="144020626#4" type="veh_petrol"/>
 <trip depart="65.67" departLane="best" departSpeed="max" from="941900655" id="veh125" to="923502545" type="veh_hybrid"/>
 <trip depart="66.20" departLane="best" from="-211649889#11" id="veh126" to="-43255862#3" type="veh_diesel"/>
 <trip depart="67.25" departLane="best" from="608523358#0" id="veh128" to="600914966#7" type="veh_diesel"/>
 <trip depart="67.77" departLane="best" departSpeed="max" from="-645950728" id="veh129" to="-34882414#0" type="veh_petrol"/>
 <trip depart="68.30" departLane="best" from="48942368-AddedOnRampEdge" id="veh130" to="4292079" type="veh_petrol"/>
 <trip depart="68.82" departLane="best" departSpeed="max" from="27994145#0" id="veh131" to="8140655#0" type="veh_diesel"/>
 <trip depart="69.35" departLane="best" departSpeed="max" from="34776540" id="veh132" to="-118988014#3" type="veh_petrol"/>
 <trip depart="69.87" departLane="best" departSpeed="max" from="48304694" id="veh133" to="-48304695" type="veh_diesel"/>
 <trip depart="70.40" departLane="best" from="358202922" id="veh134" to="7703727#7" type="veh_petrol"/>
 <trip depart="70.92" departLane="best" from="-25676160#12" id="veh135" to="-26492443" type="veh_ev"/>
 <trip depart="71.45" departLane="best" from="-25495094" id="veh136" to="25495421#0" type="veh_diesel"/>
 <trip depart="71.98" departLane="best" from="-43409517#0" id="veh137" to="26632421#1" type="veh_petrol"/>
 <trip depart="72.50" departLane="best" from="4296426#0" id="veh138" to="-4296403" type="veh_petrol"/>
 <trip depart="73.03" departLane="best" from="3101591#0" id="veh139" to="-4557562#5" type="veh_petrol"/>
 <trip depart="74.08" departLane="best" from="497445467#7" id="veh141" to="-25584691#0" type="veh_hybrid"/>
 <trip depart="74.60" departLane="best" departSpeed="max" from="-8140626#2" id="veh142" to="-4711169" type="veh_ev"/>
 <trip depart="75.13" departLane="best" departSpeed="max" from="-1065883506#1" id="veh143" to="45111166#0" type="veh_petrol"/>
 <trip depart="75.65" departLane="best" from="31525088" id="veh144" to="-4557546#0" type="veh_petrol"/>
 <trip depart="76.18" departLane="best" from="4327759#0" id="veh145" to="25495122" type="veh_petrol"/>
 <trip depart="76.70" departLane="best" departSpeed="max" from="-8147304" id="veh146" to="-118988015#7" type="veh_petrol"/>
 <trip depart="77.23" departLane="best" from="-225693293#7" id="veh147" to="608523350#0" type="veh_hybrid"/>
 <trip depart="77.75" departLane="best" from="682549778-AddedOffRampEdge" id="veh148" to="25494761#0" type="veh_petrol"/>
 <trip depart="78.28" departLane="best" from="48964101#3" id="veh149" to="25740235#0" type="veh_diesel"/>
 <trip depart="78.80" departLane="best" from="-26180033" id="veh150" to="-28417787#0" type="veh_diesel"/>
 <trip depart="79.33" departLane="best" from="-45706861#3" id="veh151" to="681265641#0" type="veh_hybrid"/>
 <trip depart="79.86" departLane="best" departSpeed="max" from="4711176" id="veh152" to="502989997#1" type="veh_diesel"/>
 <trip depart="80.38" departLane="best" from="681540791#2" id="veh153" to="-43255862#0" type="veh_hybrid"/>
 <trip depart="80.91" departLane="best" departSpeed="max" from="-4313294" id="veh154" to="-25676160#12" type="veh_petrol"/>
 <trip depart="81.43" departLane="best" departSpeed="max" from="4557571#0" id="veh155" to="608523382" type="veh_diesel"/>
 <trip depart="81.96" departLane="best" departSpeed="max" from="-801453598" id="veh156" to="296895407#7" type="veh_hybrid"/>
 <trip depart="82.48" departLane="best" from="-26492492" id="veh157" to="751107168" type="veh_diesel"/>
 <trip depart="83.53" departLane="best" from="4743043#6" id="veh159" to="607884923#0" type="veh_petrol"/>
 <trip depart="84.06" departLane="best" departSpeed="max" from="-122597262#1" id="veh160" to="4327645#0" type="veh_hybrid"/>
 <trip depart="84.58" departLane="best" from="-48304698#4" id="veh161" to="753158969#2" type="veh_petrol"/>
 <trip depart="85.11" departLane="best" departSpeed="max" from="4741999#0" id="veh162" to="50424665" type="veh_petrol"/>
 <trip depart="85.63" departLane="best" from="4743043#6" id="veh163" to="-4557578" type="veh_petrol"/>
 <trip depart="86.16" departLane="best" from="46243001#0" id="veh164" to="-26329214#2" type="veh_petrol"/>
 <trip depart="86.69" departLane="best" from="586702208#1" id="veh165" to="502458409#1" type="veh_ev"/>
 <trip depart="87.21" departLane="best" from="-4240430#6" id="veh166" to="48304698#2" type="veh_hybrid"/>
 <trip depart="87.74" departLane="best" from="118988018#5" id="veh167" to="-486758051#2" type="veh_ev"/>
 <trip depart="88.26" departLane="best" from="4711174#0" id="veh168" to="-4327667#2" type="veh_petrol"/>
 <trip depart="88.79" departLane="best" departSpeed="max" from="-122597261" id="veh169" to="-4292094" type="veh_petrol"/>
 <trip depart="89.31" departLane="best" from="-4742433#6" id="veh170" to="5056416" type="veh_petrol"/>
 <trip depart="89.84" departLane="best" from="802347520" id="veh171" to="-4711184#4" type="veh_diesel"/>
 <trip depart="90.36" departLane="best" departSpeed="max" from="329359072#0" id="veh172" to="1107381181" type="veh_petrol"/>
 <trip depart="90.89" departLane="best" departSpeed="max" from="8138900#0" id="veh173" to="25419290#2" type="veh_ev"/>
 <trip depart="91.41" departLane="best" from="7705178#1" id="veh174" to="-26492443" type="veh_petrol"/>
 <trip depart="91.94" departLane="best" from="803164387" id="veh175" to="-4240365#1" type="veh_petrol"/>
 <trip depart="92.46" departLane="best" from="802347404" id="veh176" to="-4557576" type="veh_hybrid"/>
 <trip depart="92.99" departLane="best" departSpeed="max" from="-25495421#3" id="veh177" to="122312049#0" type="veh_hybrid"/>
 <trip depart="93.52" departLane="best" from="4327644#3" id="veh178" to="-497270687#12" type="veh_hybrid"/>
 <trip depart="94.04" departLane="best" departSpeed="max" from="26628754#0" id="veh179" to="23104753#0" type="veh_diesel"/>
 <trip depart="94.57" departLane="best" from="-749511894" id="veh180" to="25584907#4" type="veh_ev"/>
 <trip depart="95.09" departLane="best" from="-4327564#6" id="veh181" to="4292126" type="veh_petrol"/>
 <trip depart="95.62" departLane="best" from="-1025631821#3" id="veh182" to="750596645" type="veh_hybrid"/>
 <trip depart="96.14" departLane="best" departSpeed="max" from="24332849" id="veh183" to="4296421#0" type="veh_diesel"/>
 <trip depart="96.67" departLane="best" departSpeed="max" from="4327762#0" id="veh184" to="38547260#0" type="veh_petrol"/>
 <trip depart="97.19" departLane="best" from="-600914966#1" id="veh185" to="-24350693" type="veh_petrol"/>
 <trip depart="97.72" departLane="best" from="35921642#8" id="veh186" to="-603722758#1" type="veh_petrol"/>
 <trip depart="98.24" departLane="best" departSpeed="max" from="-4711177" id="veh187" to="502184461#0" type="veh_hybrid"/>
 <trip depart="98.77" departLane="best" departSpeed="max" from="43255862#0" id="veh188" to="-48304696#1" type="veh_petrol"/>
 <trip depart="99.82" departLane="best" from="-801453401#2" id="veh190" to="-48304683#1" type="veh_hybrid"/>
 <trip depart="100.34" departLane="best" departSpeed="max" from="-25584898" id="veh191" to="118988015#6" type="veh_petrol"/>
 <trip depart="100.87" departLane="best" from="776019936" id="veh192" to="407971481#0" type="veh_petrol"/>
 <trip depart="101.40" departLane="best" from="682270693#3" id="veh193" to="2906436#7" type="veh_petrol"/>
 <trip depart="101.92" departLane="best" from="-4557544#0" id="veh194" to="25494979" type="veh_petrol"/>
 <trip depart="102.45" departLane="best" departSpeed="max" from="-1002325035#1" id="veh195" to="-4742341#2" type="veh_petrol"/>
 <trip depart="102.97" departLane="best" from="-871906591" id="veh196" to="25708094#1" type="veh_petrol"/>
 <trip depart="103.50" departLane="best" departSpeed="max" from="34781714#0" id="veh197" to="151792170#0" type="veh_petrol"/>
 <trip depart="104.55" departLane="best" from="122597277#0" id="veh199" to="682263349#0" type="veh_ev"/>
 <trip depart="105.07" departLane="best" departSpeed="max" from="4711176" id="veh200" to="-39379993" type="veh_hybrid"/>
 <trip depart="105.60" departLane="best" from="3101253#2" id="veh201" to="-668566995" type="veh_petrol"/>
 <trip depart="106.12" departLane="best" departSpeed="max" from="48304696#0" id="veh202" to="4356300#6" type="veh_diesel"/>
 <trip depart="106.65" departLane="best" departSpeed="max" from="39378939#0" id="veh203" to="-4327657#1" type="veh_petrol"/>
 <trip depart="107.17" departLane="best" from="-360152767#1" id="veh204" to="-126703490#0" type="veh_petrol"/>
 <trip depart="107.70" departLane="best" from="-4296411#2" id="veh205" to="171328774#1" type="veh_petrol"/>
 <trip depart="108.23" departLane="best" from="502184461#1" id="veh206" to="-24350721#3" type="veh_petrol"/>
 <trip depart="108.75" departLane="best" departSpeed="max" from="-8135915" id="veh207" to="3100848#2" type="veh_petrol"/>
 <trip depart="109.28" departLane="best" from="-3533712#0" id="veh208" to="425285897#0" type="veh_hybrid"/>
 <trip depart="109.80" departLane="best" from="145184755#0" id="veh209" to="-4480136#3" type="veh_petrol"/>
 <trip depart="110.33" departLane="best" departSpeed="max" from="34782029" id="veh210" to="-118987255#0" type="veh_petrol"/>
 <trip depart="110.85" departLane="best" from="43654884#1" id="veh211" to="45105196#0" type="veh_petrol"/>
 <trip depart="111.38" departLane="best" from="-25495037#7" id="veh212" to="119854565" type="veh_diesel"/>
 <trip depart="111.90" departLane="best" from="-31101288#6" id="veh213" to="801963240#0" type="veh_diesel"/>
 <trip depart="112.43" departLane="best" departSpeed="max" from="199010327" id="veh214" to="-198889418#0" type="veh_petrol"/>
 <trip depart="112.95" departLane="best" from="-4296426#2" id="veh215" to="502184461#1" type="veh_petrol"/>
 <trip depart="113.48" departLane="best" from="118988013#3" id="veh216" to="4711185#1" type="veh_petrol"/>
 <trip depart="114.00" departLane="best" from="37085511" id="veh217" to="8140655#0" type="veh_petrol"/>
 <trip depart="114.53" departLane="best" from="26492391#3" id="veh218" to="801453411#1" type="veh_diesel"/>
 <trip depart="115.06" departLane="best" from="610894848" id="veh219" to="28817238" type="veh_diesel"/>
 <trip depart="115.58" departLane="best" departSpeed="max" from="43255862#0" id="veh220" to="211649889#15" type="veh_petrol"/>
 <trip depart="116.63" departLane="best" from="672883978#0" id="veh222" to="4327671#0" type="veh_hybrid"/>
 <trip depart="117.16" departLane="best" from="122597289#0" id="veh223" to="-4545154#2" type="veh_petrol"/>
 <trip depart="117.68" departLane="best" from="-4296420#6" id="veh224" to="321565949" type="veh_hybrid"/>
 <trip depart="118.21" departLane="best" departSpeed="max" from="4521833#0" id="veh225" to="24449339#1" type="veh_hybrid"/>
 <trip depart="118.73" departLane="best" departSpeed="max" from="30104102#0" id="veh226" to="-4710737#1" type="veh_ev"/>
 <trip depart="119.26" departLane="best" from="-22983454#1" id="veh227" to="-4742067#0" type="veh_ev"/>
 <trip depart="119.78" departLane="best" from="-4327758#2" id="veh228" to="-502192988#1" type="veh_petrol"/>
 <trip depart="120.31" departLane="best" from="24332853" id="veh229" to="-3101255#13" type="veh_petrol"/>
 <trip depart="120.83" departLane="best" departSpeed="max" from="-4266795" id="veh230" to="4240431#0" type="veh_petrol"/>
 <trip depart="121.36" departLane="best" from="4296291#0" id="veh231" to="-22983441#11" type="veh_petrol"/>
 <trip depart="121.88" departLane="best" from="-801963213" id="veh232" to="25494474#9" type="veh_diesel"/>
 <trip depart="122.41" departLane="best" departSpeed="max" from="-8135916" id="veh233" to="-4296415#3" type="veh_hybrid"/>
 <trip depart="123.46" departLane="best" departSpeed="max" from="25594782" id="veh235" to="425193939#21" type="veh_diesel"/>
 <trip depart="123.99" departLane="best" departSpeed="max" from="502453549" id="veh236" to="4485559#0" type="veh_petrol"/>
 <trip depart="124.51" departLane="best" departSpeed="max" from="-716611472" id="veh237" to="-118987261#1" type="veh_hybrid"/>
 <trip depart="125.04" departLane="best" from="-501712767#5" id="veh238" to="43654174" type="veh_diesel"/>
 <trip depart="125.56" departLane="best" from="502450997#0" id="veh239" to="801453558#0" type="veh_petrol"/>
 <trip depart="126.09" departLane="best" from="-8137741#7" id="veh240" to="432828151#0" type="veh_diesel"/>
 <trip depart="127.14" departLane="best" departSpeed="max" from="-4240365#9" id="veh242" to="-4327644#0" type="veh_petrol"/>
 <trip depart="127.66" departLane="best" from="1014189345#0" id="veh243" to="-133061554#4" type="veh_petrol"/>
 <trip depart="128.19" departLane="best" from="-48876190#9" id="veh244" to="411693796#0" type="veh_diesel"/>
 <trip depart="128.71" departLane="best" from="-801453526#12" id="veh245" to="-38158119" type="veh_ev"/>
 <trip depart="129.24" departLane="best" from="121411532" id="veh246" to="-28417787#0" type="veh_petrol"/>
 <trip depart="129.77" departLane="best" from="29553576#0" id="veh247" to="-132725120#13" type="veh_petrol"/>
 <trip depart="130.29" departLane="best" from="-7703238#4" id="veh248" to="25584706" type="veh_ev"/>
 <trip depart="130.82" departLane="best" from="-122597278#4" id="veh249" to="334868567" type="veh_hybrid"/>
 <trip depart="131.34" departLane="best" from="-25740225#0" id="veh250" to="145282403#3" type="veh_petrol"/>
 <trip depart="131.87" departLane="best" departSpeed="max" from="-156709771#2" id="veh251" to="-8140693#1" type="veh_hybrid"/>
 <trip depart="132.39" departLane="best" from="-4231658#9" id="veh252" to="-586702208#0" type="veh_petrol"/>
 <trip depart="132.92" departLane="best" from="4485326#1" id="veh253" to="-8140693#1" type="veh_petrol"/>
 <trip depart="133.44" departLane="best" from="43654886#2" id="veh254" to="490794365" type="veh_hybrid"/>
 <trip depart="133.97" departLane="best" from="-43255862#16" id="veh255" to="-25419290#0" type="veh_petrol"/>
 <trip depart="134.49" departLane="best" from="-122311986#2" id="veh256" to="25446124#0" type="veh_diesel"/>
 <trip depart="135.54" departLane="best" departSpeed="max" from="34715734#0" id="veh258" to="4545155#0" type="veh_ev"/>
 <trip depart="136.07" departLane="best" departSpeed="max" from="34776418" id="veh259" to="43654884#5" type="veh_hybrid"/>