<?xml version="1.0" encoding="utf-8"?>
<!-- generated on 2022-11-23 13:51:36.646448 by osmWebWizard.py UNKNOWN
<configuration>
    <end value="3600"/>
    <fringe-factor value="5.0"/>
    <fringe-start-attributes value="departSpeed=&quot;max&quot;"/>
    <min-distance value="600.0"/>
    <net-file value="/Users/hjalte/Documents/DTU/Model Based System Engineering/SUMO/2022-11-23-13-50-57/osm.net.xml"/>
    <period value="0.7880487124080853"/>
    <route-file value="/Users/hjalte/Documents/DTU/Model Based System Engineering/SUMO/2022-11-23-13-50-57/osm.truck.rou.xml"/>
    <trip-attributes value="departLane=&quot;best&quot;"/>
    <output-trip-file value="/Users/hjalte/Documents/DTU/Model Based System Engineering/SUMO/2022-11-23-13-50-57/osm.truck.trips.xml"/>
    <prefix value="truck"/>
    <validate value="True"/>
    <vclass value="truck"/>
    <vehicle-class value="truck"/>
</configuration>
-->
<!-- generated on 2022-11-23 13:51:34 by Eclipse SUMO duarouter Version 1.14.1
<configuration xmlns:xsi="http://www.w3.org/2001/XMLSchema-instance" xsi:noNamespaceSchemaLocation="http://sumo.dlr.de/xsd/duarouterConfiguration.xsd">

    <input>
        <net-file value="/Users/hjalte/Documents/DTU/Model%20Based%20System%20Engineering/SUMO/2022-11-23-13-50-57/osm.net.xml"/>
        <route-files value="/Users/hjalte/Documents/DTU/Model%20Based%20System%20Engineering/SUMO/2022-11-23-13-50-57/osm.truck.trips.xml"/>
    </input>

    <output>
        <output-file value="/Users/hjalte/Documents/DTU/Model%20Based%20System%20Engineering/SUMO/2022-11-23-13-50-57/osm.truck.trips.xml.tmp"/>
        <alternatives-output value="NUL"/>
        <write-trips value="true"/>
    </output>

    <time>
        <begin value="0"/>
        <end value="3600"/>
    </time>

    <report>
        <no-warnings value="true"/>
        <ignore-errors value="true"/>
        <no-step-log value="true"/>
    </report>

</configuration>
-->
<routes xmlns:xsi="http://www.w3.org/2001/XMLSchema-instance" xsi:noNamespaceSchemaLocation="http://sumo.dlr.de/xsd/routes_file.xsd">
 <vType id="truck_truck" vClass="truck"/>
 <trip depart="0.00" departLane="best" from="30102409#7" id="truck0" to="-126703486#2" type="truck_petrol"/>
 <trip depart="0.79" departLane="best" departSpeed="max" from="-4327633#1" id="truck1" to="-4321034#0" type="truck_hybrid"/>
 <trip depart="1.58" departLane="best" from="43255862#5" id="truck2" to="363631707#6" type="truck_petrol"/>
 <trip depart="2.36" departLane="best" from="608925041" id="truck3" to="-25419283" type="truck_petrol"/>
 <trip depart="3.15" departLane="best" departSpeed="max" from="-799504279#7" id="truck4" to="-132729217#8" type="truck_petrol"/>
 <trip depart="3.94" departLane="best" departSpeed="max" from="-39378939#1" id="truck5" to="198889428" type="truck_hybrid"/>
 <trip depart="4.73" departLane="best" departSpeed="max" from="-122597262#1" id="truck6" to="-4256920#1" type="truck_petrol"/>
 <trip depart="5.52" departLane="best" departSpeed="max" from="31309902#0" id="truck7" to="25419182#4" type="truck_petrol"/>
 <trip depart="6.30" departLane="best" from="-3993570#30" id="truck8" to="25584907#3" type="truck_petrol"/>
 <trip depart="7.09" departLane="best" departSpeed="max" from="4710737#0" id="truck9" to="-118988011#10" type="truck_petrol"/>
 <trip depart="7.88" departLane="best" departSpeed="max" from="467482053" id="truck10" to="4232418#4" type="truck_petrol"/>
 <trip depart="8.67" departLane="best" departSpeed="max" from="-472163341#1" id="truck11" to="-329359072#2" type="truck_hybrid"/>
 <trip depart="9.46" departLane="best" departSpeed="max" from="801453455" id="truck12" to="-501712767#3" type="truck_petrol"/>
 <trip depart="10.24" departLane="best" departSpeed="max" from="-24931534#10" id="truck13" to="-25526590#5" type="truck_petrol"/>
 <trip depart="11.03" departLane="best" from="48876348#1" id="truck14" to="26152712#7" type="truck_petrol"/>
 <trip depart="11.82" departLane="best" from="4703253#1-AddedOnRampEdge" id="truck15" to="4296412" type="truck_petrol"/>
 <trip depart="12.61" departLane="best" from="198984148#0" id="truck16" to="8126601#1" type="truck_petrol"/>
 <trip depart="13.40" departLane="best" from="-5060471#0" id="truck17" to="25494440#1" type="truck_petrol"/>
 <trip depart="14.18" departLane="best" departSpeed="max" from="48143411#0" id="truck18" to="26628760#5" type="truck_petrol"/>
 <trip depart="14.97" departLane="best" from="497445467#5" id="truck19" to="25584729#12" type="truck_petrol"/>
 <trip depart="15.76" departLane="best" from="425193939#25" id="truck20" to="-19461388#0" type="truck_petrol"/>
 <trip depart="16.55" departLane="best" departSpeed="max" from="-4232399" id="truck21" to="-4710551#1" type="truck_hybrid"/>
 <trip depart="17.34" departLane="best" from="-213486164#0" id="truck22" to="-4327645#2" type="truck_petrol"/>
 <trip depart="18.13" departLane="best" from="-25419322#5" id="truck23" to="-4557546#0" type="truck_petrol"/>
 <trip depart="18.91" departLane="best" from="294571318#0" id="truck24" to="-719356319#26" type="truck_petrol"/>
 <trip depart="19.70" departLane="best" from="-497270687#8" id="truck25" to="-4292199#0" type="truck_petrol"/>
 <trip depart="20.49" departLane="best" departSpeed="max" from="-4313302#7" id="truck26" to="753696183#1" type="truck_petrol"/>
 <trip depart="21.28" departLane="best" from="31101084#12" id="truck27" to="26329849#7" type="truck_hybrid"/>
 <trip depart="22.07" departLane="best" departSpeed="max" from="-28286794#2" id="truck28" to="4296406#7" type="truck_hybrid"/>
 <trip depart="22.85" departLane="best" from="-26492391#10" id="truck29" to="-785399543" type="truck_petrol"/>
 <trip depart="23.64" departLane="best" departSpeed="max" from="88050327#0" id="truck30" to="3100849#0" type="truck_petrol"/>
 <trip depart="24.43" departLane="best" departSpeed="max" from="24332849" id="truck31" to="39379700" type="truck_hybrid"/>
 <trip depart="25.22" departLane="best" departSpeed="max" from="486758057" id="truck32" to="4485326#1" type="truck_petrol"/>
 <trip depart="26.01" departLane="best" departSpeed="max" from="-4232400#1" id="truck33" to="-133061555#4" type="truck_petrol"/>
 <trip depart="26.79" departLane="best" from="-4545141#2" id="truck34" to="-4544709#2" type="truck_petrol"/>
 <trip depart="27.58" departLane="best" departSpeed="max" from="-358556864" id="truck35" to="7705259#1" type="truck_petrol"/>
 <trip depart="28.37" departLane="best" from="5060471#6" id="truck36" to="-48304686" type="truck_hybrid"/>
 <trip depart="29.16" departLane="best" departSpeed="max" from="329359072#0" id="truck37" to="-8138887#0" type="truck_hybrid"/>
 <trip depart="29.95" departLane="best" from="717515712#0" id="truck38" to="122597291#5" type="truck_petrol"/>
 <trip depart="30.73" departLane="best" departSpeed="max" from="-4296425#2" id="truck39" to="-432828149" type="truck_petrol"/>
 <trip depart="31.52" departLane="best" from="24350696" id="truck40" to="-4485560#1" type="truck_petrol"/>
 <trip depart="32.31" departLane="best" departSpeed="max" from="-688894351" id="truck41" to="-4296406#6" type="truck_hybrid"/>
 <trip depart="33.10" departLane="best" from="935125126" id="truck42" to="198984148#0" type="truck_petrol"/>
 <trip depart="33.89" departLane="best" from="-24776737#3" id="truck43" to="-198569570" type="truck_hybrid"/>
 <trip depart="34.67" departLane="best" from="-25494877#1" id="truck44" to="2907046#7" type="truck_petrol"/>
 <trip depart="35.46" departLane="best" from="4557543#0" id="truck45" to="11122804#0" type="truck_petrol"/>
 <trip depart="36.25" departLane="best" departSpeed="max" from="-198725743" id="truck46" to="-800169407#0" type="truck_hybrid"/>
 <trip depart="37.04" departLane="best" from="923502546" id="truck47" to="24332846#4" type="truck_petrol"/>
 <trip depart="37.83" departLane="best" from="803024109#0" id="truck48" to="502192976" type="truck_hybrid"/>
 <trip depart="38.61" departLane="best" from="-118988014#16" id="truck49" to="4292126" type="truck_petrol"/>
 <trip depart="39.40" departLane="best" departSpeed="max" from="374739431" id="truck50" to="24449352#1-AddedOnRampEdge" type="truck_petrol"/>
 <trip depart="40.19" departLane="best" from="-4313302#3" id="truck51" to="3100852#0" type="truck_petrol"/>
 <trip depart="40.98" departLane="best" departSpeed="max" from="-25494993#3" id="truck52" to="118988014#13" type="truck_hybrid"/>
 <trip depart="41.77" departLane="best" from="-871901071#1" id="truck53" to="801453425" type="truck_petrol"/>
 <trip depart="42.55" departLane="best" from="5060471#1" id="truck54" to="-4485560#8" type="truck_petrol"/>
 <trip depart="43.34" departLane="best" departSpeed="max" from="126703490#0" id="truck55" to="-38810571" type="truck_petrol"/>
 <trip depart="44.13" departLane="best" from="708283032#0" id="truck56" to="50424614" type="truck_petrol"/>
 <trip depart="44.92" departLane="best" from="-4480137#1" id="truck57" to="3100846#0" type="truck_petrol"/>
 <trip depart="45.71" departLane="best" departSpeed="max" from="26406773" id="truck58" to="-319420605" type="truck_hybrid"/>
 <trip depart="46.49" departLane="best" from="4356300#2" id="truck59" to="24931534#5" type="truck_petrol"/>
 <trip depart="47.28" departLane="best" from="4485572#0" id="truck60" to="24332851#1" type="truck_petrol"/>
 <trip depart="48.07" departLane="best" departSpeed="max" from="-1002325035#1" id="truck61" to="-48876189#2" type="truck_petrol"/>
 <trip depart="48.86" departLane="best" departSpeed="max" from="-119854585#2" id="truck62" to="750596651" type="truck_hybrid"/>
 <trip depart="49.65" departLane="best" from="516853728#2" id="truck63" to="48304698#4" type="truck_petrol"/>
 <trip depart="50.44" departLane="best" from="-45105197#18" id="truck64" to="-199010327" type="truck_petrol"/>
 <trip depart="51.22" departLane="best" from="514292488#2" id="truck65" to="800169414#3" type="truck_petrol"/>
 <trip depart="52.01" departLane="best" departSpeed="max" from="-240753515#2" id="truck66" to="156709771#1" type="truck_hybrid"/>
 <trip depart="52.80" departLane="best" departSpeed="max" from="-198889412#2" id="truck67" to="4356291#16" type="truck_petrol"/>
 <trip depart="53.59" departLane="best" from="43654174" id="truck68" to="-26548866#5" type="truck_petrol"/>
 <trip depart="54.38" departLane="best" from="118988011#11" id="truck69" to="25446124#0" type="truck_petrol"/>
 <trip depart="55.16" departLane="best" departSpeed="max" from="-4296425#2" id="truck70" to="5060471#6" type="truck_petrol"/>
 <trip depart="55.95" departLane="best" from="-800169407#5" id="truck71" to="-4296291#4" type="truck_hybrid"/>
 <trip depart="56.74" departLane="best" departSpeed="max" from="-34781806#3" id="truck72" to="-48143413#0" type="truck_hybrid"/>
 <trip depart="57.53" departLane="best" departSpeed="max" from="-8135915" id="truck73" to="210656434#0" type="truck_petrol"/>
 <trip depart="58.32" departLane="best" departSpeed="max" from="-25567476#1" id="truck74" to="-43255862#15" type="truck_petrol"/>
 <trip depart="59.10" departLane="best" departSpeed="max" from="-4711186" id="truck75" to="25584906" type="truck_petrol"/>
 <trip depart="59.89" departLane="best" departSpeed="max" from="-4232403#5" id="truck76" to="-4296415#0" type="truck_petrol"/>
 <trip depart="60.68" departLane="best" departSpeed="max" from="-198889428" id="truck77" to="296895407#5" type="truck_petrol"/>
 <trip depart="61.47" departLane="best" departSpeed="max" from="-4232400#1" id="truck78" to="682267085#0" type="truck_petrol"/>
 <trip depart="62.26" departLane="best" from="497270687#9" id="truck79" to="-240753515#0" type="truck_petrol"/>
 <trip depart="63.04" departLane="best" departSpeed="max" from="-4240430#7" id="truck80" to="3498238#6" type="truck_petrol"/>
 <trip depart="63.83" departLane="best" departSpeed="max" from="-382952324#1" id="truck81" to="-273649456" type="truck_hybrid"/>
 <trip depart="64.62" departLane="best" departSpeed="max" from="7650169#0" id="truck82" to="25584690#1" type="truck_hybrid"/>
 <trip depart="65.41" departLane="best" from="4710545#0" id="truck83" to="-4240362#24" type="truck_hybrid"/>
 <trip depart="66.20" departLane="best" departSpeed="max" from="-25419182#4" id="truck84" to="118987255#3" type="truck_hybrid"/>
 <trip depart="66.98" departLane="best" from="-800169414#3" id="truck85" to="132327858#1" type="truck_petrol"/>
 <trip depart="67.77" departLane="best" departSpeed="max" from="4296406#0" id="truck86" to="358202917-AddedOnRampEdge" type="truck_hybrid"/>
 <trip depart="68.56" departLane="best" departSpeed="max" from="8140693#0" id="truck87" to="-25584691#0" type="truck_petrol"/>
 <trip depart="69.35" departLane="best" departSpeed="max" from="-716611472" id="truck88" to="-502450997#5" type="truck_petrol"/>
 <trip depart="70.14" departLane="best" departSpeed="max" from="-321565951" id="truck89" to="122312052#0" type="truck_petrol"/>
 <trip depart="70.92" departLane="best" departSpeed="max" from="-799504279#7" id="truck90" to="-4557549#1" type="truck_petrol"/>
 <trip depart="71.71" departLane="best" departSpeed="max" from="-4292090#6" id="truck91" to="746409654#0" type="truck_hybrid"/>
 <trip depart="72.50" departLane="best" departSpeed="max" from="-8138887#1" id="truck92" to="502192988#6" type="truck_hybrid"/>
 <trip depart="73.29" departLane="best" departSpeed="max" from="224348689" id="truck93" to="-198659944#0" type="truck_petrol"/>
 <trip depart="74.08" departLane="best" from="941900656" id="truck94" to="48876190#0" type="truck_petrol"/>
 <trip depart="74.86" departLane="best" from="802347454#0" id="truck95" to="749511894" type="truck_petrol"/>
 <trip depart="75.65" departLane="best" from="48931461#2" id="truck96" to="-34782029" type="truck_petrol"/>
 <trip depart="76.44" departLane="best" from="122311980#0" id="truck97" to="-4296397#0" type="truck_petrol"/>
 <trip depart="77.23" departLane="best" departSpeed="max" from="-691049329" id="truck98" to="-199010331#6" type="truck_petrol"/>
 <trip depart="78.02" departLane="best" from="-5060471#4" id="truck99" to="8140626#0" type="truck_hybrid"/>
 <trip depart="78.80" departLane="best" departSpeed="max" from="-4296425#2" id="truck100" to="451469991" type="truck_petrol"/>
 <trip depart="79.59" departLane="best" from="-904443331#0" id="truck101" to="11122809" type="truck_petrol"/>
 <trip depart="80.38" departLane="best" from="801453460" id="truck102" to="921524989#1" type="truck_petrol"/>
 <trip depart="81.17" departLane="best" from="24332847#1" id="truck103" to="4292092#0" type="truck_hybrid"/>
 <trip depart="81.96" departLane="best" departSpeed="max" from="-26152703#6" id="truck104" to="-4711188#1" type="truck_petrol"/>
 <trip depart="82.75" departLane="best" from="802347451" id="truck105" to="25584741#0" type="truck_hybrid"/>
 <trip depart="84.32" departLane="best" from="-171328770#5" id="truck107" to="25584898" type="truck_petrol"/>
 <trip depart="85.11" departLane="best" from="132327858#1" id="truck108" to="497238810#8" type="truck_petrol"/>
 <trip depart="85.90" departLane="best" from="-26165940#3" id="truck109" to="802347387" type="truck_petrol"/>
 <trip depart="86.69" departLane="best" from="-213486164#4" id="truck110" to="-4232388#3" type="truck_petrol"/>
 <trip depart="87.47" departLane="best" from="25584821#2" id="truck111" to="35921642#6" type="truck_petrol"/>
 <trip depart="88.26" departLane="best" departSpeed="max" from="-4240365#9" id="truck112" to="-26492396#3" type="truck_petrol"/>
 <trip depart="89.05" departLane="best" from="607961160" id="truck113" to="-432828149" type="truck_hybrid"/>
 <trip depart="89.84" departLane="best" departSpeed="max" from="-7705178#2" id="truck114" to="25584838#0" type="truck_petrol"/>
 <trip depart="90.63" departLane="best" departSpeed="max" from="161682550#0" id="truck115" to="753503865" type="truck_petrol"/>
 <trip depart="91.41" departLane="best" departSpeed="max" from="-34782169#2" id="truck116" to="4292082" type="truck_hybrid"/>
 <trip depart="92.20" departLane="best" from="-4240432#7" id="truck117" to="-8138893" type="truck_petrol"/>
 <trip depart="92.99" departLane="best" departSpeed="max" from="34882414#0" id="truck118" to="-4741998#1" type="truck_hybrid"/>
 <trip depart="93.78" departLane="best" from="-4545142#3" id="truck119" to="4327664#0" type="truck_petrol"/>
 <trip depart="94.57" departLane="best" departSpeed="max" from="-198889441#2" id="truck120" to="122597291#0" type="truck_petrol"/>
 <trip depart="95.35" departLane="best" departSpeed="max" from="941900655" id="truck121" to="923502546" type="truck_petrol"/>
 <trip depart="96.14" departLane="best" departSpeed="max" from="-198889446" id="truck122" to="-4296386#5" type="truck_petrol"/>
 <trip depart="96.93" departLane="best" departSpeed="max" from="-4296425#2" id="truck123" to="753158969#5" type="truck_petrol"/>
 <trip depart="97.72" departLane="best" departSpeed="max" from="540388562#0" id="truck124" to="586693996#0" type="truck_petrol"/>
 <trip depart="98.51" departLane="best" from="-497270687#14" id="truck125" to="-33837131" type="truck_petrol"/>
 <trip depart="99.29" departLane="best" departSpeed="max" from="48304686" id="truck126" to="4240428#0" type="truck_petrol"/>
 <trip depart="100.08" departLane="best" from="26492391#9" id="truck127" to="8140654#1" type="truck_hybrid"/>
 <trip depart="100.87" departLane="best" departSpeed="max" from="32657409" id="truck128" to="-118988014#12" type="truck_petrol"/>
 <trip depart="101.66" departLane="best" departSpeed="max" from="4741520" id="truck129" to="-4741997#3" type="truck_hybrid"/>
 <trip depart="102.45" departLane="best" from="34630185#5" id="truck130" to="7650169#13" type="truck_hybrid"/>
 <trip depart="103.23" departLane="best" from="-25584829#1" id="truck131" to="-26329214#3" type="truck_hybrid"/>
 <trip depart="104.02" departLane="best" departSpeed="max" from="-4327585#5" id="truck132" to="26157636" type="truck_petrol"/>
 <trip depart="104.81" departLane="best" from="4292193#0" id="truck133" to="-4292087" type="truck_petrol"/>
 <trip depart="105.60" departLane="best" from="2908060#8" id="truck134" to="-45105197#18" type="truck_petrol"/>
 <trip depart="106.39" departLane="best" from="122312071#7" id="truck135" to="682267085#0" type="truck_hybrid"/>
 <trip depart="107.17" departLane="best" from="-800169414#3" id="truck136" to="-4557543#6" type="truck_petrol"/>
 <trip depart="107.96" departLane="best" from="-1058351234#1" id="truck137" to="4382042#0" type="truck_petrol"/>
 <trip depart="108.75" departLane="best" from="296895407#5" id="truck138" to="-4485560#1" type="truck_petrol"/>
 <trip depart="109.54" departLane="best" from="4327640#0" id="truck139" to="25494440#1" type="truck_petrol"/>
 <trip depart="110.33" departLane="best" from="-801453526#12" id="truck140" to="-118988015#2" type="truck_petrol"/>
 <trip depart="111.11" departLane="best" departSpeed="max" from="-198984158#2" id="truck141" to="595806874#4" type="truck_petrol"/>
 <trip depart="111.90" departLane="best" from="681265637#0" id="truck142" to="25419261#0" type="truck_petrol"/>
 <trip depart="112.69" departLane="best" departSpeed="max" from="48304687" id="truck143" to="25584827" type="truck_petrol"/>
 <trip depart="113.48" departLane="best" from="-25769497#6" id="truck144" to="-26492499" type="truck_hybrid"/>
 <trip depart="114.27" departLane="best" from="-45105197#5" id="truck145" to="663428259#0" type="truck_petrol"/>
 <trip depart="115.06" departLane="best" departSpeed="max" from="4557562#0" id="truck146" to="502192976" type="truck_petrol"/>
 <trip depart="115.84" departLane="best" from="662025855" id="truck147" to="-4292200#3" type="truck_petrol"/>
 <trip depart="116.63" departLane="best" from="-4292089#3" id="truck148" to="-25584737#4" type="truck_petrol"/>
 <trip depart="117.42" departLane="best" from="45105197#6" id="truck149" to="596132873#0" type="truck_petrol"/>
 <trip depart="119.00" departLane="best" departSpeed="max" from="-26152703#6" id="truck151" to="750596652" type="truck_petrol"/>
 <trip depart="119.78" departLane="best" from="502185393#0" id="truck152" to="8135915" type="truck_petrol"/>
 <trip depart="120.57" departLane="best" departSpeed="max" from="4711168" id="truck153" to="590562903#1" type="truck_petrol"/>
 <trip depart="121.36" departLane="best" from="-122597259" id="truck154" to="4313302#4" type="truck_petrol"/>
 <trip depart="122.15" departLane="best" departSpeed="max" from="-4711172#4" id="truck155" to="750596654#0" type="truck_hybrid"/>
 <trip depart="122.94" departLane="best" departSpeed="max" from="4557585" id="truck156" to="502451000" type="truck_petrol"/>
 <trip depart="123.72" departLane="best" departSpeed="max" from="4711168" id="truck157" to="-4544692#1" type="truck_petrol"/>
 <trip depart="124.51" departLane="best" from="4545142#3" id="truck158" to="-25588123#0" type="truck_hybrid"/>
 <trip depart="125.30" departLane="best" from="502456854" id="truck159" to="501712767#6" type="truck_petrol"/>
 <trip depart="126.88" departLane="best" from="1014189345#0" id="truck161" to="-4742348#0" type="truck_petrol"/>
 <trip depart="127.66" departLane="best" from="4557560#0" id="truck162" to="-4327573#7" type="truck_petrol"/>
 <trip depart="128.45" departLane="best" from="-122312058#1" id="truck163" to="-4240429" type="truck_petrol"/>
 <trip depart="129.24" departLane="best" from="-46243001#1" id="truck164" to="502451002" type="truck_petrol"/>
 <trip depart="130.03" departLane="best" from="802347420#0" id="truck165" to="-4557552#1" type="truck_petrol"/>
 <trip depart="130.82" departLane="best" from="305768750" id="truck166" to="-8140693#1" type="truck_petrol"/>
 <trip depart="131.60" departLane="best" departSpeed="max" from="8138900#0" id="truck167" to="24449350#2-AddedOnRampEdge" type="truck_petrol"/>
 <trip depart="132.39" departLane="best" from="7703238#1" id="truck168" to="-26329214#3" type="truck_hybrid"/>
 <trip depart="133.18" departLane="best" from="802347522#0" id="truck169" to="-38810571" type="truck_petrol"/>
 <trip depart="133.97" departLane="best" from="801963214" id="truck170" to="-4521833#4" type="truck_petrol"/>
 <trip depart="134.76" departLane="best" departSpeed="max" from="-25494761#2" id="truck171" to="118988014#12" type="truck_hybrid"/>
 <trip depart="135.54" departLane="best" departSpeed="max" from="4296406#0" id="truck172" to="-48304683#3" type="truck_hybrid"/>
 <trip depart="136.33" departLane="best" from="26165941" id="truck173" to="198984158#0" type="truck_petrol"/>
 <trip depart="137.12" departLane="best" from="-595806874#6" id="truck174" to="25584706" type="truck_petrol"/>
 <trip depart="137.91" departLane="best" from="-4292196" id="truck175" to="4256884#1" type="truck_petrol"/>
 <trip depart="138.70" departLane="best" from="-1025631821#3" id="truck176" to="749511891#0" type="truck_petrol"/>
 <trip depart="139.48" departLane="best" departSpeed="max" from="199010327" id="truck177" to="4292121#8" type="truck_petrol"/>
 <trip depart="140.27" departLane="best" from="4327640#6" id="truck178" to="3535822#0" type="truck_petrol"/>
 <trip depart="141.06" departLane="best" departSpeed="max" from="-490794368#1" id="truck179" to="-22983476#0" type="truck_hybrid"/>
 <trip depart="141.85" departLane="best" departSpeed="max" from="34715734#0" id="truck180" to="-490794367#1" type="truck_petrol"/>
 <trip depart="142.64" departLane="best" departSpeed="max" from="-4544766#1" id="truck181" to="490794370#0" type="truck_hybrid"/>
 <trip depart="143.42" departLane="best" from="4296283#4" id="truck182" to="-4741998#1" type="truck_hybrid"/>
 <trip depart="144.21" departLane="best" from="-452310435#1" id="truck183" to="-89864374#1" type="truck_petrol"/>
 <trip depart="145.00" departLane="best" departSpeed="max" from="-708283031" id="truck184" to="-4711184#4" type="truck_petrol"/>
 <trip depart="145.79" departLane="best" departSpeed="max" from="-25584705#2" id="truck185" to="1107381181" type="truck_petrol"/>
 <trip depart="146.58" departLane="best" from="7703727#11" id="truck186" to="36706559" type="truck_petrol"/>
 <trip depart="147.37" departLane="best" departSpeed="max" from="668566995" id="truck187" to="26492493" type="truck_hybrid"/>
 <trip depart="148.15" departLane="best" departSpeed="max" from="-4485325#2" id="truck188" to="25419317" type="truck_petrol"/>
 <trip depart="148.94" departLane="best" departSpeed="max" from="-1002325035#1" id="truck189" to="-45765055#4" type="truck_petrol"/>
 <trip depart="149.73" departLane="best" departSpeed="max" from="-801453598" id="truck190" to="25584743#7" type="truck_hybrid"/>
 <trip depart="150.52" departLane="best" departSpeed="max" from="32657409" id="truck191" to="126703490#1" type="truck_hybrid"/>
 <trip depart="151.31" departLane="best" from="-8137741#3" id="truck192" to="-4296397#0" type="truck_petrol"/>
 <trip depart="152.09" departLane="best" from="117882083" id="truck193" to="668566994#0" type="truck_hybrid"/>
 <trip depart="152.88" departLane="best" departSpeed="max" from="4557562#0" id="truck194" to="-3498237#7" type="truck_hybrid"/>
 <trip depart="153.67" departLane="best" from="-23104753#6" id="truck195" to="207233511#1" type="truck_petrol"/>
 <trip depart="154.46" departLane="best" from="2907047#0" id="truck196" to="-497439891#7" type="truck_petrol"/>
 <trip depart="155.25" departLane="best" departSpeed="max" from="4741998#0" id="truck197" to="4327659#2" type="truck_petrol"/>
 <trip depart="156.03" departLane="best" from="3498235#0" id="truck198" to="-43255862#10" type="truck_petrol"/>
 <trip depart="156.82" departLane="best" from="-34694060#3" id="truck199" to="-126703486#2" type="truck_petrol"/>
 <trip depart="157.61" departLane="best" from="-425909096#1" id="truck200" to="145011973#0" type="truck_petrol"/>
 <trip depart="158.40" departLane="best" from="48942364" id="truck201" to="-24332849" type="truck_petrol"/>
 <trip depart="159.19" departLane="best" from="-753158969#7" id="truck202" to="294571318#0" type="truck_petrol"/>
 <trip depart="159.97" departLane="best" departSpeed="max" from="-334868567" id="truck203" to="4232402" type="truck_petrol"/>
 <trip depart="160.76" departLane="best" from="122597291#16" id="truck204" to="-4327748" type="truck_petrol"/>
 <trip depart="161.55" departLane="best" from="329740874#0" id="truck205" to="-11551218#16" type="truck_hybrid"/>
 <trip depart="162.34" departLane="best" from="4327664#2" id="truck206" to="4374465#6" type="truck_petrol"/>
 <trip depart="163.13" departLane="best" departSpeed="max" from="-25494721" id="truck207" to="115069538#0" type="truck_petrol"/>
 <trip depart="163.91" departLane="best" departSpeed="max" from="-299723352" id="truck208" to="801583238#0" type="truck_petrol"/>
 <trip depart="164.70" departLane="best" from="-4292088" id="truck209" to="490794370#0" type="truck_petrol"/>
 <trip depart="165.49" departLane="best" from="-921524985#1" id="truck210" to="4557577#1" type="truck_petrol"/>
 <trip depart="166.28" departLane="best" departSpeed="max" from="34776540" id="truck211" to="8140655#0" type="truck_petrol"/>
 <trip depart="167.07" departLane="best" from="25584821#6" id="truck212" to="801453394#0" type="truck_petrol"/>
 <trip depart="167.85" departLane="best" from="4296283#0" id="truck213" to="198889423#0" type="truck_petrol"/>
 <trip depart="168.64" departLane="best" departSpeed="max" from="48182870#0" id="truck214" to="25419317" type="truck_petrol"/>
 <trip depart="169.43" departLane="best" from="610894846" id="truck215" to="4327630#1" type="truck_petrol"/>
 <trip depart="170.22" departLane="best" from="118987257#5" id="truck216" to="-4480140" type="truck_petrol"/>
 <trip depart="171.01" departLane="best" departSpeed="max" from="-4266795" id="truck217" to="305768748" type="truck_petrol"/>
 <trip depart="171.79" departLane="best" from="43654174" id="truck218" to="220742491" type="truck_petrol"/>
 <trip depart="172.58" departLane="best" departSpeed="max" from="27994145#0" id="truck219" to="-4545154#2" type="truck_petrol"/>
 <trip depart="173.37" departLane="best" departSpeed="max" from="-199161661" id="truck220" to="-4557587" type="truck_petrol"/>
 <trip depart="174.16" departLane="best" from="-4327584#4" id="truck221" to="-48304698#0" type="truck_hybrid"/>
 <trip depart="174.95" departLane="best" departSpeed="max" from="199161658" id="truck222" to="-2907046#6" type="truck_petrol"/>
 <trip depart="175.73" departLane="best" departSpeed="max" from="4256885#0" id="truck223" to="-211649889#9" type="truck_petrol"/>
 <trip depart="176.52" departLane="best" from="-747852324#1" id="truck224" to="25419081#10" type="truck_hybrid"/>
 <trip depart="177.31" departLane="best" from="-7650169#16" id="truck225" to="-4292121#4" type="truck_hybrid"/>
 <trip depart="178.10" departLane="best" departSpeed="max" from="-784412996" id="truck226" to="682263352#0" type="truck_petrol"/>
 <trip depart="178.89" departLane="best" from="25494622#0" id="truck227" to="4232400#0" type="truck_petrol"/>
 <trip depart="179.68" departLane="best" from="496762360#2" id="truck228" to="43654174" type="truck_petrol"/>
 <trip depart="180.46" departLane="best" departSpeed="max" from="-540388541" id="truck229" to="-118987255#0" type="truck_petrol"/>
 <trip depart="181.25" departLane="best" departSpeed="max" from="-48304691#7" id="truck230" to="4327668#0" type="truck_hybrid"/>
 <trip depart="182.04" departLane="best" departSpeed="max" from="490794367#0" id="truck231" to="801453422" type="truck_petrol"/>
 <trip depart="182.83" departLane="best" departSpeed="max" from="-7705178#2" id="truck232" to="4327644#4" type="truck_petrol"/>
 <trip depart="183.62" departLane="best" from="211649889#2" id="truck233" to="26152712#0" type="truck_hybrid"/>
 <trip depart="184.40" departLane="best" from="-3993570#30" id="truck234" to="-4296406#9" type="truck_petrol"/>
 <trip depart="185.19" departLane="best" departSpeed="max" from="-8126604" id="truck235" to="-132725120#4" type="truck_petrol"/>
 <trip depart="185.98" departLane="best" departSpeed="max" from="-4711182#1" id="truck236" to="38242960#3" type="truck_petrol"/>