<?xml version="1.0" encoding="UTF-8"?>

<!-- generated on 2022-11-29 19:47:44 by Eclipse SUMO polyconvert Version 1.14.1
<configuration xmlns:xsi="http://www.w3.org/2001/XMLSchema-instance" xsi:noNamespaceSchemaLocation="http://sumo.dlr.de/xsd/polyconvertConfiguration.xsd">

    <input>
        <net-file value="osm.net.xml"/>
        <osm-files value="osm_bbox.osm.xml.gz"/>
        <osm.keep-full-type value="true"/>
        <type-file value="/opt/homebrew/opt/sumo/share/sumo/data/typemap/osmPolyconvert.typ.xml"/>
    </input>

    <output>
        <output-file value="osm.poly.xml"/>
    </output>

    <report>
        <verbose value="true"/>
    </report>

</configuration>
-->

<additional xmlns:xsi="http://www.w3.org/2001/XMLSchema-instance" xsi:noNamespaceSchemaLocation="http://sumo.dlr.de/xsd/additional_file.xsd">
    <location netOffset="-342197.54,-6183366.12" convBoundary="-0.00,-292.33,6756.49,4415.98" origBoundary="12.482672,55.768370,12.590985,55.811634" projParameter="+proj=utm +zone=33 +ellps=WGS84 +datum=WGS84 +units=m +no_defs"/>

    <poly id="1007075358" type="amenity.parking" color="184,184,179" fill="1" layer="-1.00" shape="2559.740564,2510.634286 2564.633558,2510.047121 2562.233785,2490.326449 2557.347435,2490.924519 2559.740564,2510.634286"/>
    <poly id="1007075359" type="amenity.parking" color="184,184,179" fill="1" layer="-1.00" shape="2563.592622,2542.534476 2568.648542,2541.941486 2565.797834,2517.859014 2560.742284,2518.463133 2563.592622,2542.534476"/>
    <poly id="1007075360" type="amenity.parking" color="184,184,179" fill="1" layer="-1.00" shape="2567.622555,2569.582511 2565.397101,2551.225794 2570.096145,2550.656708 2572.321579,2569.013427 2567.622555,2569.582511"/>
    <poly id="1007075361" type="building.yes" color="255,230,230" fill="1" layer="-1.00" shape="2769.055435,2430.945459 2805.266464,2426.343807 2804.200249,2416.344983 2767.757710,2421.144284 2769.055435,2430.945459"/>
    <poly id="1007075364" type="amenity.parking" color="184,184,179" fill="1" layer="-1.00" shape="2488.218212,2496.527768 2549.864110,2488.574324 2547.988168,2474.026051 2681.528203,2456.329653 2680.569917,2450.237039 2468.367407,2477.932871 2469.191384,2484.297614 2486.352313,2482.090550 2488.218212,2496.527768"/>
    <poly id="1009712611" type="building.shed" color="255,230,230" fill="1" layer="-1.00" shape="2023.196968,3507.500880 2029.974578,3506.834251 2029.232677,3500.500027 2022.803305,3501.254414 2023.196968,3507.500880"/>
    <poly id="1009712612" type="landuse.grass" color="194,194,130" fill="1" layer="-3.00" shape="1943.234850,3558.507664 1951.054464,3545.627606 1957.236510,3539.211801 1966.394156,3533.012195 1972.013809,3531.551571 1967.330289,3486.748144 1964.298931,3486.901570 1962.226219,3490.162010 1962.288852,3494.526587 1951.935130,3498.173567 1941.107405,3498.930094 1939.697076,3490.235957 1932.139245,3485.427658 1925.198056,3484.685552 1933.805618,3545.266869 1943.234850,3558.507664"/>
    <poly id="1009712615" type="leisure.horse_riding" color="207,245,201" fill="1" layer="-2.00" shape="1128.360416,3530.293970 1134.433117,3533.739760 1216.079943,3580.053548 1252.800393,3526.548987 1162.359549,3473.901362 1128.360416,3530.293970"/>
    <poly id="1009712616" type="leisure.pitch" color="207,245,201" fill="1" layer="-2.00" shape="1178.618431,3589.014196 1175.330023,3594.212723 1169.061405,3604.108501 1163.625867,3607.011732 1158.092737,3607.211480 1116.507033,3581.186078 1112.285837,3577.406096 1110.674069,3571.693790 1114.765785,3563.547529 1119.756361,3561.005644 1124.283398,3560.396579 1178.618431,3589.014196"/>
    <poly id="1009712616#1" type="sport.equestrian" color="79,230,125" fill="1" layer="-2.00" shape="1178.618431,3589.014196 1175.330023,3594.212723 1169.061405,3604.108501 1163.625867,3607.011732 1158.092737,3607.211480 1116.507033,3581.186078 1112.285837,3577.406096 1110.674069,3571.693790 1114.765785,3563.547529 1119.756361,3561.005644 1124.283398,3560.396579 1178.618431,3589.014196"/>
    <poly id="1009712617" type="leisure.horse_riding" color="207,245,201" fill="1" layer="-2.00" shape="1124.283398,3560.396579 1132.423780,3544.473266 1185.668686,3572.784999 1178.618431,3589.014196 1124.283398,3560.396579"/>
    <poly id="1009712618" type="leisure.horse_riding" color="207,245,201" fill="1" layer="-2.00" shape="1196.574869,3600.631181 1173.837531,3635.952372 1157.726982,3623.845526 1160.649250,3618.760461 1169.061405,3604.108501 1175.330023,3594.212723 1178.155330,3593.219541 1181.608951,3592.771821 1184.943578,3593.720894 1196.574869,3600.631181"/>
    <poly id="1009712619" type="natural.grassland" color="140,196,107" fill="1" layer="-4.00" shape="1026.140939,3542.786602 1063.663548,3565.214917 1068.881972,3565.160099 1080.600172,3562.308324 1084.383009,3559.509240 1138.281577,3472.798831 1137.011337,3469.246480 1130.484634,3465.393756 1093.885668,3444.401962 1090.027148,3450.668298 1077.829308,3444.591949 1026.140939,3542.786602"/>
    <poly id="1009712621" type="landuse.forest" color="140,196,107" fill="1" layer="-3.00" shape="1166.058096,3469.111345 1162.359549,3473.901362 1128.360416,3530.293970 1134.433117,3533.739760 1114.765785,3563.547529 1110.674069,3571.693790 1112.285837,3577.406096 1116.507033,3581.186078 1158.092737,3607.211480 1160.649250,3618.760461 1157.726982,3623.845526 1173.837531,3635.952372 1169.874669,3640.194934 1144.620779,3617.445332 1128.331888,3604.052788 1114.572180,3594.501382 1101.645537,3588.039126 1100.248017,3582.352506 1098.318729,3575.493112 1096.592309,3570.776409 1098.151847,3564.270038 1131.669147,3510.712966 1151.478831,3478.928381 1157.508597,3470.233187 1161.380839,3465.214095 1166.058096,3469.111345"/>
    <poly id="1009712623" type="amenity.parking" color="184,184,179" fill="1" layer="-1.00" shape="1380.315145,3345.092665 1375.386049,3340.647271 1373.862048,3339.276296 1367.848404,3330.681388 1391.560398,3315.868310 1394.397395,3317.804664 1389.031726,3332.234901 1384.065380,3340.334409 1381.617860,3344.154512 1380.315145,3345.092665"/>
    <poly id="1009712625" type="amenity.parking" color="184,184,179" fill="1" layer="-1.00" shape="1483.304389,3194.267650 1484.201235,3186.415120 1494.173520,3187.147634 1495.183548,3180.694661 1531.576949,3188.139962 1532.426384,3189.423884 1492.026024,3214.807427 1490.294200,3212.196225 1491.336209,3197.398298 1491.520184,3194.840630 1483.304389,3194.267650"/>
    <poly id="1009712626" type="amenity.parking" color="184,184,179" fill="1" layer="-1.00" shape="1998.562293,3421.494456 2005.989359,3420.737639 2014.002783,3420.583615 2014.219352,3396.380076 1995.988130,3395.062883 1998.562293,3421.494456"/>
    <poly id="1014058596" type="building.yes" color="255,230,230" fill="1" layer="-1.00" shape="1976.886059,1537.835197 1999.041719,1529.520769 1985.513671,1492.075125 1962.889957,1499.771441 1976.886059,1537.835197"/>
    <poly id="1014189350" type="landuse.construction" color="194,194,130" fill="1" layer="-3.00" shape="1692.492346,291.141960 1715.956733,288.672352 1792.423028,338.639036 1835.649359,366.651830 1887.133320,393.477431 1916.400823,406.106675 1923.308826,408.588021 1921.226614,424.926857 1891.382283,412.841862 1872.863486,404.561338 1831.096091,382.188265 1762.126452,336.541264 1692.492346,291.141960"/>
    <poly id="1014189351" type="landuse.construction" color="194,194,130" fill="1" layer="-3.00" shape="2401.478237,438.174833 2393.857523,434.013865 2388.134652,432.180049 2357.177304,431.583413 2337.504173,431.017558 2316.559833,429.494719 2296.957964,430.218707 2250.809408,431.481194 2204.628971,431.854133 2119.807340,431.328680 2081.694742,431.514028 2049.852357,431.107260 2030.271075,429.080186 2007.618135,425.793174 1987.585689,421.342857 1954.496854,413.150215 1952.650370,413.662058 1953.019919,431.661854 1966.688863,434.279445 1987.950931,438.351362 2009.036174,442.396303 2052.026800,446.045724 2092.198194,447.245617 2128.858030,447.524591 2152.717972,447.705534 2157.057889,447.739397 2188.384778,447.608421 2257.718250,447.319600 2304.270086,448.382088 2304.302677,451.923363 2356.586447,457.883218 2362.823804,460.233288 2363.428289,460.456731 2368.260283,463.013056 2375.832817,463.020578 2380.700628,466.578212 2384.463964,472.258502 2387.367487,479.529122 2388.228250,483.230138 2391.198598,483.769965 2396.115288,519.230087 2399.024280,546.485215 2408.599089,647.213538 2410.872682,661.625001 2416.471498,688.605669 2424.184875,716.780625 2445.266210,774.654957 2453.058604,771.346218 2436.010218,707.913672 2429.913863,682.465788 2421.202254,647.096842 2408.575790,548.460556 2404.794468,517.705335 2406.123728,510.985074 2406.574894,494.638073 2401.583536,448.664701 2401.478237,438.174833"/>
    <poly id="1019429177" type="landuse.meadow" color="194,194,130" fill="1" layer="-3.00" shape="2466.316621,744.259184 2485.059816,743.265820 2529.262722,740.537921 2513.180936,673.906889 2508.627949,664.745722 2502.313012,652.840347 2494.131277,645.970051 2485.278893,641.942104 2475.821209,639.072073 2466.666155,637.817640 2456.176141,637.858623 2449.005209,639.240220 2457.097780,720.326556 2457.580973,727.516685 2459.077679,734.781961 2461.394596,742.686285 2466.316621,744.259184"/>
    <poly id="1019754372" type="amenity.shelter" color="237,199,199" fill="1" layer="-1.00" shape="2475.391440,465.173939 2477.640173,464.848452 2476.838461,459.284976 2474.589726,459.610464 2475.391440,465.173939"/>
    <poly id="1019754372#1" type="building.roof" color="255,230,230" fill="1" layer="-1.00" shape="2475.391440,465.173939 2477.640173,464.848452 2476.838461,459.284976 2474.589726,459.610464 2475.391440,465.173939"/>
    <poly id="1019776898" type="amenity.shelter" color="237,199,199" fill="1" layer="-1.00" shape="2465.626231,449.325981 2470.433256,449.254334 2470.404534,447.573262 2465.597905,447.656034 2465.626231,449.325981"/>
    <poly id="1019776898#1" type="building.roof" color="255,230,230" fill="1" layer="-1.00" shape="2465.626231,449.325981 2470.433256,449.254334 2470.404534,447.573262 2465.597905,447.656034 2465.626231,449.325981"/>
    <poly id="1020376332" type="landuse.grass" color="194,194,130" fill="1" layer="-3.00" shape="1625.509250,3227.769650 1637.391006,3227.163818 1638.334640,3223.219756 1641.897017,3223.693117 1645.920152,3226.856897 1663.499596,3229.042747 1672.746969,3232.129985 1681.602332,3235.832899 1689.706716,3238.894452 1699.539261,3242.027533 1721.238475,3247.975519 1737.377910,3252.697650 1741.756935,3253.720996 1744.107917,3254.360543 1744.050719,3254.863895 1737.442588,3253.798173 1717.260064,3253.031305 1704.361551,3253.105360 1699.660653,3252.728603 1695.546021,3251.729208 1693.399432,3251.015495 1691.300722,3250.935035 1688.718142,3251.183899 1684.874497,3252.658962 1679.048871,3256.600410 1672.733635,3260.013627 1666.936397,3262.650703 1665.307450,3263.244027 1662.675697,3264.218771 1659.893524,3259.617838 1656.997052,3254.107549 1655.061867,3251.247387 1649.466399,3236.822039 1647.514450,3235.588909 1644.007700,3235.614838 1637.948763,3231.677687 1626.397347,3229.954529 1625.509250,3227.769650"/>
    <poly id="1020376333" type="landuse.forest" color="140,196,107" fill="1" layer="-3.00" shape="1625.509250,3227.769650 1619.406948,3227.510253 1632.352180,3242.506555 1634.577433,3242.615853 1640.791779,3274.586539 1658.345053,3272.562418 1669.067933,3269.224531 1675.949325,3267.072027 1706.140254,3261.385159 1722.764942,3261.455584 1738.532399,3260.197836 1774.614618,3266.352939 1792.236476,3270.075077 1815.081664,3278.410813 1846.677077,3289.105756 1869.847510,3304.403640 1885.446052,3318.881984 1907.661278,3366.809629 1917.116111,3362.760394 1914.553683,3359.900381 1899.305667,3329.323381 1893.678011,3321.137248 1893.468221,3318.092461 1893.457713,3317.101390 1893.126275,3315.910192 1886.506442,3308.227589 1886.231194,3304.583601 1886.926204,3301.573144 1888.854391,3299.877445 1913.850931,3304.705309 1915.595586,3301.044459 1919.675058,3297.399997 1889.856940,3288.835234 1883.535860,3287.023750 1876.183974,3284.814859 1856.264407,3279.136361 1836.615985,3273.671005 1810.357157,3266.727810 1795.739620,3263.142670 1795.522550,3263.039075 1783.018487,3260.469706 1775.949835,3258.986028 1766.601805,3257.807118 1757.978718,3257.070034 1749.587759,3255.633947 1744.107917,3254.360543 1744.050719,3254.863895 1737.442588,3253.798173 1717.260064,3253.031305 1704.361551,3253.105360 1699.660653,3252.728603 1695.546021,3251.729208 1693.399432,3251.015495 1691.300722,3250.935035 1688.718142,3251.183899 1684.874497,3252.658962 1679.048871,3256.600410 1672.733635,3260.013627 1666.936397,3262.650703 1665.307450,3263.244027 1662.675697,3264.218771 1659.893524,3259.617838 1656.997052,3254.107549 1655.061867,3251.247387 1649.466399,3236.822039 1647.514450,3235.588909 1644.007700,3235.614838 1637.948763,3231.677687 1626.397347,3229.954529 1625.509250,3227.769650"/>
    <poly id="1020376337" type="landuse.grass" color="194,194,130" fill="1" layer="-3.00" shape="1568.041662,3243.061292 1568.126383,3216.133078 1581.450230,3212.879578 1584.802897,3213.627801 1569.134748,3242.921680 1568.041662,3243.061292"/>
    <poly id="1020376338" type="landuse.grass" color="194,194,130" fill="1" layer="-3.00" shape="1571.537853,3242.567806 1573.414665,3241.887543 1606.266602,3227.493040 1615.728430,3223.286942 1616.109747,3222.549125 1604.730220,3215.316723 1600.590137,3212.914702 1589.094684,3208.738847 1571.537853,3242.567806"/>
    <poly id="1020376340" type="building.yes" color="255,230,230" fill="1" layer="-1.00" shape="1400.123462,3204.383134 1401.634933,3194.436400 1406.802387,3195.219343 1405.290904,3205.166074 1400.123462,3204.383134"/>
    <poly id="1020376341" type="leisure.swimming_pool" color="207,245,201" fill="1" layer="-2.00" shape="1387.769623,3191.371348 1386.844891,3197.052625 1396.994197,3198.692010 1397.298183,3196.854105 1398.787590,3197.090064 1399.096240,3195.207431 1397.568830,3194.961702 1397.888008,3193.022990 1387.769623,3191.371348"/>
    <poly id="1020376342" type="leisure.pitch" color="207,245,201" fill="1" layer="-2.00" shape="1382.541084,3184.541645 1416.764032,3189.735981 1419.403400,3172.429677 1385.180322,3167.235318 1382.541084,3184.541645"/>
    <poly id="1020376342#1" type="sport.tennis" color="79,230,125" fill="1" layer="-2.00" shape="1382.541084,3184.541645 1416.764032,3189.735981 1419.403400,3172.429677 1385.180322,3167.235318 1382.541084,3184.541645"/>
    <poly id="1020376343" type="landuse.grass" color="194,194,130" fill="1" layer="-3.00" shape="1922.729738,3186.615726 1905.897282,3223.213280 1925.144094,3232.169020 1942.372258,3196.103187 1922.729738,3186.615726"/>
    <poly id="1020376346" type="leisure.horse_riding" color="207,245,201" fill="1" layer="-2.00" shape="2834.546990,3310.806934 2865.199033,3280.236672 2867.061832,3278.632879 2869.520546,3277.375423 2871.255456,3276.934731 2873.197522,3277.199587 2875.279752,3278.929885 2882.540007,3286.323688 2883.721104,3288.297816 2884.140530,3290.555348 2883.585661,3292.413213 2882.027812,3294.473981 2880.540443,3295.696753 2880.071015,3296.081123 2841.679129,3333.589229 2839.355902,3335.476830 2836.908969,3336.711606 2834.263166,3336.594436 2832.400331,3335.736362 2825.848953,3329.041409 2824.247758,3327.427632 2823.592337,3325.590702 2823.210049,3324.022511 2823.660954,3321.889856 2832.475701,3312.897196 2834.546990,3310.806934"/>
    <poly id="1021443784" type="man_made.embankment" color="255,230,230" fill="0" layer="-1.00" shape="887.538016,3181.045381 884.472554,3171.932302 880.025528,3167.302902 869.960719,3168.357535 856.064726,3172.268907 841.671166,3181.333864 826.179285,3193.167903 817.167494,3204.422242 809.986936,3214.084173 806.086691,3229.253149"/>
    <poly id="1021443786" type="natural.water" color="181,209,209" fill="1" layer="-4.00" shape="865.333834,3218.966796 858.740505,3215.718418 854.660258,3209.605300 854.188294,3202.281105 857.451845,3195.701873 863.566989,3191.626279 870.910813,3191.160185 877.504168,3194.408581 881.583991,3200.510595 882.055909,3207.834793 878.799001,3214.424905 872.677209,3218.489578 865.333834,3218.966796"/>
    <poly id="1021443789" type="natural.water" color="181,209,209" fill="1" layer="-4.00" shape="895.339795,3290.258363 949.037858,3248.513896 934.409795,3229.737036 877.696010,3268.605209 895.339795,3290.258363"/>
    <poly id="1021993394" type="building.yes" color="255,230,230" fill="1" layer="-1.00" shape="3385.935475,1861.276391 3394.820944,1860.681881 3394.586633,1857.270346 3385.707821,1857.875759 3385.935475,1861.276391"/>
    <poly id="1021993395" type="building.yes" color="255,230,230" fill="1" layer="-1.00" shape="3684.269958,2683.762554 3689.889983,2683.507303 3689.617545,2677.601841 3681.635825,2677.974370 3681.746226,2680.376607 3684.108308,2680.270454 3684.269958,2683.762554"/>
    <poly id="1021993396" type="amenity.kindergarten" color="237,199,199" fill="1" layer="-2.00" shape="3563.693923,2440.066339 3608.687556,2437.832861 3610.065837,2409.143936 3562.967392,2410.081999 3563.693923,2440.066339"/>
    <poly id="1021993397" type="building.yes" color="255,230,230" fill="1" layer="-1.00" shape="2904.548127,634.243704 2924.664302,629.660881 2920.172308,610.036998 2909.753057,612.413693 2912.013606,622.280810 2902.316615,624.486952 2904.548127,634.243704"/>
    <poly id="1021993398" type="building.construction" color="255,230,230" fill="1" layer="-1.00" shape="3635.850918,1043.671278 3643.791568,1039.757890 3644.312266,1040.808807 3647.748935,1039.116133 3644.434970,1032.416342 3647.482957,1030.915699 3641.302000,1018.435978 3634.675485,1021.701179 3638.293736,1029.013979 3636.553652,1029.866661 3637.737386,1032.264209 3631.678646,1035.253050 3635.850918,1043.671278"/>
    <poly id="1021993399" type="building.yes" color="255,230,230" fill="1" layer="-1.00" shape="3650.818428,1041.758655 3653.123545,1040.729969 3651.977787,1038.163975 3649.678544,1039.181314 3650.818428,1041.758655"/>
    <poly id="1021993400" type="building.yes" color="255,230,230" fill="1" layer="-1.00" shape="3351.714444,434.371017 3364.246348,432.945144 3364.044308,431.147711 3366.145765,430.917040 3365.487387,425.114431 3363.530156,425.339974 3363.367835,423.953294 3350.691676,425.384297 3351.714444,434.371017"/>
    <poly id="1024876232" type="leisure.park" color="207,245,201" fill="1" layer="-2.00" shape="1929.121911,475.218235 1939.536889,481.996254 1947.505802,486.400167 1954.760165,490.139065 1960.793699,492.752096 1963.156480,488.255963 1952.182399,488.293230 1952.000137,444.364396 1949.196726,443.930273 1948.950269,442.836276 1946.327497,441.136875 1927.737040,468.996222 1927.259001,470.372433 1927.137482,471.535334 1927.271751,472.477399 1927.644709,473.422038 1928.141885,474.328800 1929.121911,475.218235"/>
    <poly id="1024876235" type="landuse.forest" color="140,196,107" fill="1" layer="-3.00" shape="1950.480520,442.436036 1949.792680,438.840281 1966.688863,434.279445 1987.950931,438.351362 2009.036174,442.396303 2052.026800,446.045724 2092.198194,447.245617 2128.858030,447.524591 2152.717972,447.705534 2188.384778,447.608421 2188.413051,450.325512 2188.429341,452.007033 2187.788123,451.985446 2167.302636,452.229252 2167.310026,452.785976 2147.384237,453.054380 2147.362059,451.384209 2123.200666,451.726530 2123.574939,477.936152 2120.644092,477.974359 2117.324456,478.026502 2117.125785,458.293935 2114.228445,456.114128 2109.632118,455.933542 2106.723328,455.536515 2104.799933,456.530060 2102.198412,456.122022 2100.578686,455.077244 2097.105327,453.118612 2092.939204,451.452171 2089.555421,451.116741 2085.413599,451.354339 2083.385775,452.062003 2081.059279,453.370784 2079.377238,455.491946 2077.666749,457.870343 2076.200378,459.527043 2074.475310,461.148460 2072.410600,462.403301 2069.592216,462.426369 2066.274309,460.250532 2056.977871,453.142477 2053.547012,451.494269 2051.007568,450.716422 2046.113995,450.301486 2033.253135,454.806417 2030.581127,456.985380 2026.972776,459.142226 2024.800109,459.487499 2023.035677,458.960369 2020.861533,458.213998 2018.577937,456.691768 2015.155390,454.575420 2012.205600,453.210764 2008.186976,451.806467 2003.651917,451.233902 1997.695149,451.636941 1990.587233,453.206399 1986.273537,453.728752 1984.003615,453.988416 1982.124818,453.599082 1981.043268,452.679858 1979.858076,451.496998 1976.478526,446.204294 1973.370750,444.811912 1970.492207,444.558707 1967.952750,445.006286 1965.392549,446.100719 1965.156789,442.154549 1950.480520,442.436036"/>
    <poly id="1024876240" type="leisure.park" color="207,245,201" fill="1" layer="-2.00" shape="1964.933098,493.673004 1966.622671,487.563476 1971.296445,486.927925 1977.594810,486.947046 1977.626785,476.986920 1977.691695,473.720630 1976.818060,473.696273 1976.782415,471.302495 1971.429436,471.383136 1971.470273,473.921545 1966.185193,474.144573 1965.831370,450.106442 1966.474860,448.791139 1968.348630,447.465118 1971.878761,446.803762 1973.758360,447.215342 1975.767658,448.791949 1979.054626,453.954296 1980.837601,455.873218 1982.850309,456.669920 1995.633422,455.075112 1995.750550,498.950563 1986.950626,498.508723 1980.010490,497.576870 1973.340843,496.134033 1968.698591,495.197739 1964.933098,493.673004"/>
    <poly id="1024876241" type="leisure.park" color="207,245,201" fill="1" layer="-2.00" shape="2015.341470,498.103054 2021.726809,498.096839 2021.720060,488.104687 2021.832322,484.056917 2020.732143,484.018395 2020.729926,482.380926 2015.260896,482.376557 2015.257358,484.203610 2010.489174,484.307788 2010.275981,473.287040 2009.964228,459.518298 2010.781888,457.806862 2012.103264,456.834867 2013.463518,456.596703 2015.045927,457.475692 2018.550904,459.789599 2021.289761,461.050426 2024.221760,461.569102 2027.482068,461.262801 2030.694498,459.621444 2034.653791,457.095543 2037.057803,455.672559 2039.563797,454.992285 2039.696502,498.789177 2035.974979,499.189988 2026.606760,499.358857 2011.178999,499.689381 2011.164577,498.587058 2015.341470,498.103054"/>
    <poly id="1024876242" type="leisure.park" color="207,245,201" fill="1" layer="-2.00" shape="2083.656970,498.683413 2095.064088,498.642093 2095.026906,499.356372 2083.634325,499.452870 2078.907264,499.477521 2071.688321,499.524680 2054.243552,499.637732 2054.212947,498.959303 2054.344010,498.586990 2054.718148,498.339639 2059.223629,498.088971 2065.570142,498.050792 2065.419666,488.074939 2065.424040,485.044761 2064.626455,485.039938 2064.612862,482.734490 2059.346096,482.767373 2059.358894,485.050570 2053.889871,485.046153 2053.760379,462.347910 2054.110551,459.505848 2054.785595,457.844095 2055.589134,456.088616 2056.204535,455.565260 2057.740646,456.379085 2065.101187,462.030399 2068.840657,464.581014 2070.176959,464.900716 2072.040982,464.878445 2073.342981,464.241357 2075.625685,463.112378 2077.711667,461.400044 2081.391677,457.213232 2083.530978,454.886302 2083.656970,498.683413"/>
    <poly id="1024876243" type="leisure.park" color="207,245,201" fill="1" layer="-2.00" shape="2097.944799,499.307472 2109.928933,499.423743 2112.962491,499.448686 2117.630033,499.515323 2117.324456,478.026502 2117.125785,458.293935 2114.228445,456.114128 2109.632118,455.933542 2106.723328,455.536515 2104.799933,456.530060 2102.198412,456.122022 2100.578686,455.077244 2100.329930,456.545472 2098.930536,458.144064 2098.170875,459.897961 2097.761650,461.093447 2097.944799,499.307472"/>
    <poly id="1024876244" type="amenity.kindergarten" color="237,199,199" fill="1" layer="-2.00" shape="2117.630033,499.515323 2137.404319,499.229921 2137.334691,494.308635 2137.281953,490.734657 2139.823605,490.699269 2139.775074,487.593011 2147.355743,487.477304 2147.401187,490.672791 2149.578737,490.639317 2149.622403,494.135642 2152.753903,494.090264 2152.210904,455.632943 2165.226537,455.445055 2166.262018,455.430233 2166.223979,452.791470 2147.384237,453.054380 2147.362059,451.384209 2123.200666,451.726530 2123.574939,477.936152 2120.644092,477.974359 2117.324456,478.026502 2117.630033,499.515323"/>
    <poly id="1025254064" type="amenity.parking" color="184,184,179" fill="1" layer="-1.00" shape="2169.113933,567.616954 2174.210485,567.568018 2174.291404,524.264823 2169.104727,524.428383 2169.113933,567.616954"/>
    <poly id="1025254065" type="amenity.parking" color="184,184,179" fill="1" layer="-1.00" shape="2181.386512,496.228025 2175.225443,496.359648 2175.252186,493.250694 2170.723794,493.212428 2170.284044,493.205905 2170.369926,469.842727 2178.756075,469.776195 2189.876289,469.611729 2189.911044,470.056075 2220.923424,469.914313 2237.087140,465.937758 2298.555604,465.374273 2298.560362,478.485594 2242.929067,478.283048 2242.930389,471.833079 2231.515355,471.829732 2231.550269,477.888513 2228.846368,477.951937 2181.076611,478.114721 2181.304425,484.823841 2181.386512,496.228025"/>
    <poly id="1025254066" type="leisure.playground" color="207,245,201" fill="1" layer="-2.00" shape="2242.930389,471.833079 2242.929067,478.283048 2242.928513,494.747636 2232.002657,494.726772 2231.550269,477.888513 2231.515355,471.829732 2242.930389,471.833079"/>
    <poly id="1025254070" type="building.shed" color="255,230,230" fill="1" layer="-1.00" shape="1971.470273,473.921545 1971.475178,474.233283 1976.828153,474.152642 1976.818060,473.696273 1976.782415,471.302495 1971.429436,471.383136 1971.470273,473.921545"/>
    <poly id="1025254071" type="building.shed" color="255,230,230" fill="1" layer="-1.00" shape="2015.260896,482.376557 2015.257358,484.203610 2015.256956,485.417862 2020.725982,485.422230 2020.732143,484.018395 2020.729926,482.380926 2015.260896,482.376557"/>
    <poly id="1025254072" type="building.shed" color="255,230,230" fill="1" layer="-1.00" shape="2059.346096,482.767373 2059.358894,485.050570 2059.355640,485.485139 2064.628673,485.452031 2064.626455,485.039938 2064.612862,482.734490 2059.346096,482.767373"/>
    <poly id="1025254073" type="building.shed" color="255,230,230" fill="1" layer="-1.00" shape="2100.974103,493.083142 2100.999020,490.275024 2106.230542,490.310293 2106.206021,493.129536 2100.974103,493.083142"/>
    <poly id="1025254074" type="building.yes" color="255,230,230" fill="1" layer="-1.00" shape="2175.252186,493.250694 2175.225443,496.359648 2170.697055,496.321383 2170.723794,493.212428 2175.252186,493.250694"/>
    <poly id="1025254075" type="leisure.park" color="207,245,201" fill="1" layer="-2.00" shape="1925.090458,501.975901 1925.121975,504.603764 1922.447443,504.610627 1917.689025,504.636579 1917.838662,547.820238 1929.333463,547.775330 1929.210820,549.606660 1930.538912,550.572722 1930.030586,553.554152 1928.488446,556.071391 1925.638861,558.022861 1922.700900,559.086321 1919.883936,558.797524 1915.527391,557.773057 1912.686069,556.805611 1909.877622,555.179737 1906.178190,552.171089 1895.835864,542.516476 1893.069462,540.488071 1889.756945,538.813464 1885.793148,537.886326 1879.298663,536.949778 1875.317088,536.402041 1872.683873,535.460568 1870.160535,531.808178 1873.284351,529.100458 1883.992332,518.679096 1888.585124,514.214267 1895.614385,507.133252 1904.593152,495.938528 1906.241979,494.119260 1908.298081,492.976044 1910.231800,492.271673 1912.128249,492.103352 1914.497872,492.697836 1924.895525,500.568141 1925.090458,501.975901"/>
    <poly id="1025254076" type="leisure.park" color="207,245,201" fill="1" layer="-2.00" shape="1977.904437,523.931207 1976.391198,523.929795 1976.389053,526.670263 1976.413215,547.645637 1976.416736,566.995342 1987.651704,567.060165 1987.745691,574.230824 1976.147182,570.157576 1967.445076,566.838205 1955.379070,562.336191 1948.836620,559.886250 1942.793274,558.922283 1937.931206,557.982772 1936.671813,557.181340 1935.650401,555.313087 1934.965327,553.544162 1935.044264,552.594446 1932.906245,552.504073 1932.788188,530.317818 1933.491870,529.980652 1933.305266,522.156066 1935.723087,522.169561 1935.600502,517.528661 1933.452202,517.327258 1933.587520,509.725055 1933.731843,508.672735 1934.353493,508.149136 1935.392723,507.889047 1936.724350,508.253436 1955.680857,516.674456 1962.214236,518.344950 1975.487451,520.965612 1977.229745,521.226161 1977.885838,521.837592 1977.904437,523.931207"/>
    <poly id="1025254077" type="leisure.park" color="207,245,201" fill="1" layer="-2.00" shape="1990.692901,575.350477 1990.693138,542.276410 1992.583295,542.108348 1992.589975,544.570003 1997.831986,544.549063 1997.825309,542.087408 2001.123807,542.147327 2001.104705,539.864354 2003.855260,539.877091 2003.897138,523.889983 2030.749492,523.483892 2035.766578,523.493345 2036.116421,524.494520 2035.111909,524.497124 2035.158133,567.105167 2047.036973,567.091354 2046.799810,576.936293 2013.308094,576.555573 2003.710306,576.621337 1997.189692,576.353942 1993.743572,575.853731 1990.692901,575.350477"/>
    <poly id="1025254078" type="leisure.park" color="207,245,201" fill="1" layer="-2.00" shape="2049.555188,576.558992 2064.068069,576.461911 2069.746414,576.703905 2075.944757,577.439693 2093.396964,580.345326 2096.151479,580.469376 2099.325573,579.687205 2102.297768,578.177047 2104.163762,576.985039 2104.295828,575.064262 2102.211582,575.072137 2102.187176,569.837314 2104.572814,569.829776 2104.455718,567.438920 2093.700928,567.456840 2093.611848,524.337932 2094.220905,524.338378 2094.022702,523.888752 2090.709371,523.940691 2069.632364,524.139341 2065.671106,523.457025 2062.590988,523.534043 2062.407302,524.364973 2062.449521,540.427033 2056.278250,540.447796 2056.237009,542.799770 2056.193089,545.252098 2051.343056,545.348031 2051.273703,542.888624 2049.344611,542.846400 2049.555188,576.558992"/>
    <poly id="1025254079" type="building.yes" color="255,230,230" fill="1" layer="-1.00" shape="2104.572814,569.829776 2102.187176,569.837314 2102.211582,575.072137 2104.295828,575.064262 2104.998937,575.061338 2104.980805,569.826290 2104.572814,569.829776"/>
    <poly id="1025254080" type="building.yes" color="255,230,230" fill="1" layer="-1.00" shape="2051.273703,542.888624 2056.237009,542.799770 2056.193089,545.252098 2051.343056,545.348031 2051.273703,542.888624"/>