<?xml version="1.0" encoding="utf-8"?>
<!-- generated on 2022-11-29 19:47:49.118268 by osmWebWizard.py UNKNOWN
<configuration>
    <end value="32400"/>
    <fringe-factor value="5.0"/>
    <fringe-start-attributes value="departSpeed=&quot;max&quot;"/>
    <min-distance value="600.0"/>
    <net-file value="/Users/hjalte/Documents/DTU/Model Based System Engineering/SUMO/Maps/2022-11-29-19-47-15/osm.net.xml"/>
    <period value="19.865186018705536"/>
    <route-file value="/Users/hjalte/Documents/DTU/Model Based System Engineering/SUMO/Maps/2022-11-29-19-47-15/osm.truck.rou.xml"/>
    <trip-attributes value="departLane=&quot;best&quot;"/>
    <output-trip-file value="/Users/hjalte/Documents/DTU/Model Based System Engineering/SUMO/Maps/2022-11-29-19-47-15/osm.truck.trips.xml"/>
    <prefix value="truck"/>
    <validate value="True"/>
    <vclass value="truck"/>
    <vehicle-class value="truck"/>
</configuration>
-->
<!-- generated on 2022-11-29 19:47:48 by Eclipse SUMO duarouter Version 1.14.1
<configuration xmlns:xsi="http://www.w3.org/2001/XMLSchema-instance" xsi:noNamespaceSchemaLocation="http://sumo.dlr.de/xsd/duarouterConfiguration.xsd">

    <input>
        <net-file value="/Users/hjalte/Documents/DTU/Model%20Based%20System%20Engineering/SUMO/Maps/2022-11-29-19-47-15/osm.net.xml"/>
        <route-files value="/Users/hjalte/Documents/DTU/Model%20Based%20System%20Engineering/SUMO/Maps/2022-11-29-19-47-15/osm.truck.trips.xml"/>
    </input>

    <output>
        <output-file value="/Users/hjalte/Documents/DTU/Model%20Based%20System%20Engineering/SUMO/Maps/2022-11-29-19-47-15/osm.truck.trips.xml.tmp"/>
        <alternatives-output value="NUL"/>
        <write-trips value="true"/>
    </output>

    <time>
        <begin value="0"/>
        <end value="32400"/>
    </time>

    <report>
        <no-warnings value="true"/>
        <ignore-errors value="true"/>
        <no-step-log value="true"/>
    </report>

</configuration>
-->
<routes xmlns:xsi="http://www.w3.org/2001/XMLSchema-instance" xsi:noNamespaceSchemaLocation="http://sumo.dlr.de/xsd/routes_file.xsd">
 <vType id="truck_truck" vClass="truck"/>
 <trip depart="0.00" departLane="best" from="25494474#7" id="truck0" to="-143882122#0" type="truck_petrol"/>
 <trip depart="19.87" departLane="best" departSpeed="max" from="-25740264#2" id="truck1" to="-30116390#13" type="truck_petrol"/>
 <trip depart="39.73" departLane="best" departSpeed="max" from="26492449" id="truck2" to="25584823#5" type="truck_petrol"/>
 <trip depart="59.60" departLane="best" from="48876348#1" id="truck3" to="-211649889#5" type="truck_petrol"/>
 <trip depart="79.46" departLane="best" from="-48876195#2" id="truck4" to="-145011973#6" type="truck_petrol"/>
 <trip depart="99.33" departLane="best" from="-25584740#9" id="truck5" to="198659943#1" type="truck_petrol"/>
 <trip depart="119.19" departLane="best" from="-143884452#6" id="truck6" to="-26492445" type="truck_hybrid"/>
 <trip depart="158.92" departLane="best" departSpeed="max" from="-25584741#2" id="truck8" to="25494440#1" type="truck_hybrid"/>
 <trip depart="178.79" departLane="best" departSpeed="max" from="38461038" id="truck9" to="-11122804#4" type="truck_hybrid"/>
 <trip depart="198.65" departLane="best" departSpeed="max" from="374739431" id="truck10" to="25584905" type="truck_hybrid"/>
 <trip depart="218.52" departLane="best" departSpeed="max" from="-34626289#3" id="truck11" to="-25584907#3" type="truck_petrol"/>
 <trip depart="238.38" departLane="best" from="682270693#3" id="truck12" to="-48307181#4" type="truck_petrol"/>
 <trip depart="258.25" departLane="best" departSpeed="max" from="-198889409#3" id="truck13" to="-22983452#0" type="truck_petrol"/>
 <trip depart="278.11" departLane="best" departSpeed="max" from="48182870#0" id="truck14" to="25494761#0" type="truck_petrol"/>
 <trip depart="297.98" departLane="best" departSpeed="max" from="374739431" id="truck15" to="25927423#1" type="truck_hybrid"/>
 <trip depart="317.84" departLane="best" from="128839354#0" id="truck16" to="750596649" type="truck_hybrid"/>
 <trip depart="337.71" departLane="best" from="-43654884#4" id="truck17" to="211649889#11" type="truck_petrol"/>
 <trip depart="357.57" departLane="best" from="4374464#0" id="truck18" to="25494999" type="truck_petrol"/>
 <trip depart="377.44" departLane="best" departSpeed="max" from="48304695" id="truck19" to="24931534#7" type="truck_petrol"/>
 <trip depart="397.30" departLane="best" departSpeed="max" from="263374751#0" id="truck20" to="-156163477#7" type="truck_hybrid"/>
 <trip depart="417.17" departLane="best" from="-25584821#4" id="truck21" to="-4374464#2" type="truck_petrol"/>
 <trip depart="437.03" departLane="best" departSpeed="max" from="-198659945#1" id="truck22" to="-3101255#9" type="truck_petrol"/>
 <trip depart="456.90" departLane="best" departSpeed="max" from="-198889428" id="truck23" to="-38547261#1" type="truck_petrol"/>
 <trip depart="476.76" departLane="best" from="-38547261#0" id="truck24" to="-26492488#1" type="truck_petrol"/>
 <trip depart="496.63" departLane="best" departSpeed="max" from="-25740225#1" id="truck25" to="662025872" type="truck_petrol"/>
 <trip depart="516.49" departLane="best" from="-25494891#1" id="truck26" to="-682267085#1" type="truck_petrol"/>
 <trip depart="536.36" departLane="best" departSpeed="max" from="150201718" id="truck27" to="25584879#0" type="truck_hybrid"/>
 <trip depart="556.23" departLane="best" departSpeed="max" from="48143413#0" id="truck28" to="3101254#2" type="truck_petrol"/>
 <trip depart="576.09" departLane="best" from="-25584821#6" id="truck29" to="-147359137#4" type="truck_petrol"/>
 <trip depart="595.96" departLane="best" departSpeed="max" from="-30101887#10" id="truck30" to="-352967868#2" type="truck_petrol"/>
 <trip depart="615.82" departLane="best" departSpeed="max" from="-25584706" id="truck31" to="681265641#4" type="truck_petrol"/>
 <trip depart="635.69" departLane="best" departSpeed="max" from="25584689#0" id="truck32" to="-753521071#1" type="truck_petrol"/>
 <trip depart="655.55" departLane="best" from="497430173#0" id="truck33" to="147359137#17" type="truck_petrol"/>
 <trip depart="675.42" departLane="best" from="-25676160#10" id="truck34" to="-339889578#1" type="truck_petrol"/>
 <trip depart="695.28" departLane="best" from="155815605#5" id="truck35" to="-3498236#4" type="truck_hybrid"/>
 <trip depart="715.15" departLane="best" departSpeed="max" from="198659943#0" id="truck36" to="497430170#1" type="truck_petrol"/>
 <trip depart="735.01" departLane="best" departSpeed="max" from="-48143413#1" id="truck37" to="-30102409#5" type="truck_petrol"/>
 <trip depart="754.88" departLane="best" from="904443331#0" id="truck38" to="198659944#1" type="truck_petrol"/>
 <trip depart="774.74" departLane="best" departSpeed="max" from="-198889402#2" id="truck39" to="-156709771#0" type="truck_petrol"/>
 <trip depart="794.61" departLane="best" departSpeed="max" from="-198889446" id="truck40" to="25495368#2" type="truck_petrol"/>
 <trip depart="814.47" departLane="best" departSpeed="max" from="34776540" id="truck41" to="1058351238" type="truck_petrol"/>
 <trip depart="834.34" departLane="best" from="-198569569#1" id="truck42" to="-682270693#0" type="truck_petrol"/>
 <trip depart="854.20" departLane="best" departSpeed="max" from="88050356" id="truck43" to="198889409#0" type="truck_petrol"/>
 <trip depart="874.07" departLane="best" departSpeed="max" from="749511894" id="truck44" to="48304691#5" type="truck_petrol"/>
 <trip depart="893.93" departLane="best" from="-11122804#4" id="truck45" to="25740235#0" type="truck_hybrid"/>
 <trip depart="913.80" departLane="best" from="25584838#0" id="truck46" to="198889423#0" type="truck_petrol"/>
 <trip depart="933.66" departLane="best" departSpeed="max" from="-25740225#1" id="truck47" to="25567476#0" type="truck_petrol"/>
 <trip depart="953.53" departLane="best" from="-211649889#1" id="truck48" to="115068563#0" type="truck_petrol"/>
 <trip depart="973.39" departLane="best" departSpeed="max" from="-645950728" id="truck49" to="689303712#3" type="truck_petrol"/>
 <trip depart="993.26" departLane="best" departSpeed="max" from="48304700#0" id="truck50" to="-3498236#7" type="truck_petrol"/>
 <trip depart="1013.12" departLane="best" from="-948470802" id="truck51" to="-26492391#1" type="truck_petrol"/>
 <trip depart="1032.99" departLane="best" from="497238812" id="truck52" to="48307181#5" type="truck_petrol"/>
 <trip depart="1052.85" departLane="best" from="-26406793" id="truck53" to="25545027" type="truck_petrol"/>
 <trip depart="1072.72" departLane="best" from="211649889#11" id="truck54" to="-25584829#1" type="truck_petrol"/>
 <trip depart="1092.59" departLane="best" from="339889572#2" id="truck55" to="198889409#0" type="truck_petrol"/>
 <trip depart="1112.45" departLane="best" departSpeed="max" from="-1002325035#1" id="truck56" to="-48304696#1" type="truck_petrol"/>
 <trip depart="1132.32" departLane="best" departSpeed="max" from="-115069538#1" id="truck57" to="645950728" type="truck_hybrid"/>
 <trip depart="1152.18" departLane="best" from="48307181#5" id="truck58" to="43409517#1" type="truck_petrol"/>
 <trip depart="1172.05" departLane="best" from="-26780088#1" id="truck59" to="-198659941" type="truck_petrol"/>
 <trip depart="1191.91" departLane="best" from="48307181#3" id="truck60" to="682270691" type="truck_petrol"/>
 <trip depart="1211.78" departLane="best" departSpeed="max" from="-198725744#1" id="truck61" to="156709771#1" type="truck_petrol"/>
 <trip depart="1231.64" departLane="best" departSpeed="max" from="-198659940#2" id="truck62" to="296895407#7" type="truck_petrol"/>
 <trip depart="1251.51" departLane="best" from="3101255#5" id="truck63" to="-25584689#2" type="truck_petrol"/>
 <trip depart="1271.37" departLane="best" from="-718917500" id="truck64" to="206256031" type="truck_petrol"/>
 <trip depart="1291.24" departLane="best" from="-25676160#12" id="truck65" to="48876189#10" type="truck_hybrid"/>
 <trip depart="1311.10" departLane="best" departSpeed="max" from="133061554#0" id="truck66" to="25927423#1" type="truck_hybrid"/>
 <trip depart="1330.97" departLane="best" from="-25584699#3" id="truck67" to="-48304686" type="truck_petrol"/>
 <trip depart="1350.83" departLane="best" departSpeed="max" from="88050356" id="truck68" to="25584703" type="truck_petrol"/>
 <trip depart="1370.70" departLane="best" departSpeed="max" from="-502413863" id="truck69" to="198725744#0" type="truck_petrol"/>
 <trip depart="1390.56" departLane="best" from="-22983441#6" id="truck70" to="-30116390#13" type="truck_petrol"/>
 <trip depart="1410.43" departLane="best" departSpeed="max" from="-34626289#3" id="truck71" to="25494440#1" type="truck_petrol"/>
 <trip depart="1430.29" departLane="best" from="-25584823#6" id="truck72" to="-30104102#1" type="truck_petrol"/>
 <trip depart="1450.16" departLane="best" departSpeed="max" from="-198659940#2" id="truck73" to="25495432" type="truck_petrol"/>
 <trip depart="1470.02" departLane="best" from="-25584821#6" id="truck74" to="502413863" type="truck_hybrid"/>
 <trip depart="1489.89" departLane="best" departSpeed="max" from="48304694" id="truck75" to="-198725742" type="truck_hybrid"/>
 <trip depart="1509.75" departLane="best" departSpeed="max" from="-25584879#5" id="truck76" to="25584743#0" type="truck_hybrid"/>
 <trip depart="1529.62" departLane="best" from="-25584729#14" id="truck77" to="-25584699#0" type="truck_hybrid"/>
 <trip depart="1549.48" departLane="best" from="547497842#2" id="truck78" to="23104753#0" type="truck_petrol"/>
 <trip depart="1569.35" departLane="best" departSpeed="max" from="-708283031" id="truck79" to="339889572#5" type="truck_petrol"/>
 <trip depart="1589.21" departLane="best" departSpeed="max" from="374739431" id="truck80" to="-26492438" type="truck_hybrid"/>
 <trip depart="1609.08" departLane="best" departSpeed="max" from="-198889412#2" id="truck81" to="11122804#8" type="truck_petrol"/>
 <trip depart="1628.95" departLane="best" from="-48876348#0" id="truck82" to="151792170#0" type="truck_hybrid"/>
 <trip depart="1648.81" departLane="best" departSpeed="max" from="26492443" id="truck83" to="25584821#0" type="truck_petrol"/>
 <trip depart="1668.68" departLane="best" departSpeed="max" from="800169394#0" id="truck84" to="-22983454#1" type="truck_petrol"/>
 <trip depart="1688.54" departLane="best" from="-48304683#7" id="truck85" to="-48876189#4" type="truck_petrol"/>
 <trip depart="1728.27" departLane="best" from="-25544997#2" id="truck87" to="125192017" type="truck_hybrid"/>
 <trip depart="1748.14" departLane="best" from="-48876195#2" id="truck88" to="-3993570#19" type="truck_hybrid"/>
 <trip depart="1768.00" departLane="best" departSpeed="max" from="-25584905" id="truck89" to="547497842#0" type="truck_petrol"/>
 <trip depart="1787.87" departLane="best" from="-52596262#5" id="truck90" to="48304691#5" type="truck_petrol"/>
 <trip depart="1807.73" departLane="best" from="143884452#5" id="truck91" to="-171328770#5" type="truck_petrol"/>
 <trip depart="1827.60" departLane="best" from="948470808" id="truck92" to="43654886#4" type="truck_hybrid"/>
 <trip depart="1847.46" departLane="best" from="749511891#2" id="truck93" to="59517050#0" type="truck_petrol"/>
 <trip depart="1867.33" departLane="best" departSpeed="max" from="48304683#0" id="truck94" to="-25927428#0" type="truck_petrol"/>
 <trip depart="1887.19" departLane="best" departSpeed="max" from="-750596652" id="truck95" to="-26632421#0" type="truck_hybrid"/>
 <trip depart="1907.06" departLane="best" departSpeed="max" from="-48143413#1" id="truck96" to="-198659941" type="truck_petrol"/>
 <trip depart="1926.92" departLane="best" from="-43654884#4" id="truck97" to="753602307#1" type="truck_petrol"/>
 <trip depart="1946.79" departLane="best" from="-25676160#12" id="truck98" to="339889572#2" type="truck_petrol"/>
 <trip depart="1966.65" departLane="best" from="-662025868" id="truck99" to="1077239432#0" type="truck_petrol"/>
 <trip depart="1986.52" departLane="best" from="682270693#3" id="truck100" to="852535085#8" type="truck_petrol"/>
 <trip depart="2006.38" departLane="best" departSpeed="max" from="150201718" id="truck101" to="25740233#0" type="truck_petrol"/>
 <trip depart="2026.25" departLane="best" departSpeed="max" from="-25494726" id="truck102" to="-45765055#4" type="truck_petrol"/>
 <trip depart="2046.11" departLane="best" from="749511891#1" id="truck103" to="24931534#9" type="truck_petrol"/>
 <trip depart="2065.98" departLane="best" departSpeed="max" from="133061555#0" id="truck104" to="26492391#9" type="truck_hybrid"/>
 <trip depart="2085.84" departLane="best" from="-163428607#0" id="truck105" to="25446124#4" type="truck_petrol"/>
 <trip depart="2105.71" departLane="best" departSpeed="max" from="1002325035#0" id="truck106" to="45765055#5" type="truck_petrol"/>
 <trip depart="2125.57" departLane="best" departSpeed="max" from="-25494761#2" id="truck107" to="747852325" type="truck_petrol"/>
 <trip depart="2145.44" departLane="best" departSpeed="max" from="-198659945#1" id="truck108" to="-26492396#2" type="truck_petrol"/>
 <trip depart="2165.31" departLane="best" departSpeed="max" from="198725742" id="truck109" to="25584821#5" type="truck_petrol"/>
 <trip depart="2185.17" departLane="best" from="-25584838#2" id="truck110" to="-25494891#1" type="truck_hybrid"/>
 <trip depart="2205.04" departLane="best" from="48876197#0" id="truck111" to="-339889572#4" type="truck_petrol"/>
 <trip depart="2224.90" departLane="best" departSpeed="max" from="198725742" id="truck112" to="25495037#0" type="truck_petrol"/>
 <trip depart="2244.77" departLane="best" from="117882083" id="truck113" to="662025867#0" type="truck_petrol"/>
 <trip depart="2264.63" departLane="best" departSpeed="max" from="-25584703" id="truck114" to="25740233#0" type="truck_petrol"/>
 <trip depart="2284.50" departLane="best" departSpeed="max" from="-25584898" id="truck115" to="-753521071#1" type="truck_petrol"/>
 <trip depart="2304.36" departLane="best" from="25584743#0" id="truck116" to="-48143411#0" type="truck_petrol"/>
 <trip depart="2324.23" departLane="best" departSpeed="max" from="-30101887#10" id="truck117" to="26632421#1" type="truck_petrol"/>
 <trip depart="2344.09" departLane="best" departSpeed="max" from="-198659943#1" id="truck118" to="147359137#17" type="truck_petrol"/>
 <trip depart="2363.96" departLane="best" from="945507035" id="truck119" to="871906591" type="truck_petrol"/>
 <trip depart="2383.82" departLane="best" from="-25676160#12" id="truck120" to="662025858" type="truck_petrol"/>
 <trip depart="2403.69" departLane="best" from="48876189#10" id="truck121" to="48876193#4" type="truck_petrol"/>
 <trip depart="2423.55" departLane="best" departSpeed="max" from="-38547260#2" id="truck122" to="-25588123#0" type="truck_petrol"/>
 <trip depart="2443.42" departLane="best" from="4382047#3" id="truck123" to="25584907#4" type="truck_petrol"/>
 <trip depart="2483.15" departLane="best" from="25544997#3" id="truck125" to="-11122804#8" type="truck_petrol"/>
 <trip depart="2503.01" departLane="best" from="407467976#0" id="truck126" to="-48143411#0" type="truck_hybrid"/>
 <trip depart="2522.88" departLane="best" from="25584699#1" id="truck127" to="662025872" type="truck_petrol"/>
 <trip depart="2542.74" departLane="best" departSpeed="max" from="-24931534#9" id="truck128" to="-25494866#2" type="truck_petrol"/>
 <trip depart="2582.47" departLane="best" departSpeed="max" from="-25740235#1" id="truck130" to="25494761#0" type="truck_petrol"/>
 <trip depart="2602.34" departLane="best" from="25494359#0" id="truck131" to="-3498237#1" type="truck_petrol"/>
 <trip depart="2622.20" departLane="best" from="-750596653#2" id="truck132" to="502413863" type="truck_petrol"/>
 <trip depart="2642.07" departLane="best" departSpeed="max" from="48182870#0" id="truck133" to="-215614884" type="truck_petrol"/>
 <trip depart="2661.93" departLane="best" from="-48876348#0" id="truck134" to="-38547260#0" type="truck_hybrid"/>
 <trip depart="2681.80" departLane="best" departSpeed="max" from="-1025820809" id="truck135" to="30117685#0" type="truck_petrol"/>
 <trip depart="2701.67" departLane="best" from="25494440#0" id="truck136" to="-3498234#15" type="truck_petrol"/>
 <trip depart="2721.53" departLane="best" from="26492488#0" id="truck137" to="211649889#11" type="truck_petrol"/>
 <trip depart="2741.40" departLane="best" from="-48964101#4" id="truck138" to="-11551215#0" type="truck_hybrid"/>
 <trip depart="2761.26" departLane="best" departSpeed="max" from="-198659944#1" id="truck139" to="48876197#4" type="truck_petrol"/>
 <trip depart="2800.99" departLane="best" from="45105196#0" id="truck141" to="25441648#0" type="truck_hybrid"/>
 <trip depart="2820.86" departLane="best" from="-25494526#7" id="truck142" to="-25584689#0" type="truck_petrol"/>
 <trip depart="2840.72" departLane="best" departSpeed="max" from="-27056361#2" id="truck143" to="497430176#2" type="truck_petrol"/>
 <trip depart="2860.59" departLane="best" from="3498236#0" id="truck144" to="48304691#0" type="truck_petrol"/>
 <trip depart="2880.45" departLane="best" departSpeed="max" from="48942315" id="truck145" to="-26492492" type="truck_hybrid"/>
 <trip depart="2900.32" departLane="best" departSpeed="max" from="-25584905" id="truck146" to="-25010931#0" type="truck_hybrid"/>
 <trip depart="2940.05" departLane="best" departSpeed="max" from="-25494726" id="truck148" to="645950728" type="truck_hybrid"/>
 <trip depart="2959.91" departLane="best" departSpeed="max" from="48304696#0" id="truck149" to="750596651" type="truck_petrol"/>
 <trip depart="2979.78" departLane="best" departSpeed="max" from="38461038" id="truck150" to="48876195#6" type="truck_petrol"/>
 <trip depart="2999.64" departLane="best" departSpeed="max" from="-143882122#1" id="truck151" to="26406606" type="truck_petrol"/>
 <trip depart="3019.51" departLane="best" departSpeed="max" from="-329741491#1" id="truck152" to="645950728" type="truck_petrol"/>
 <trip depart="3039.37" departLane="best" from="36706559" id="truck153" to="48304698#4" type="truck_petrol"/>
 <trip depart="3059.24" departLane="best" departSpeed="max" from="38461038" id="truck154" to="-3498238#5" type="truck_petrol"/>
 <trip depart="3079.10" departLane="best" departSpeed="max" from="34776443" id="truck155" to="-25494429#2" type="truck_petrol"/>
 <trip depart="3098.97" departLane="best" from="-25584743#6" id="truck156" to="38547233" type="truck_petrol"/>
 <trip depart="3118.83" departLane="best" from="-681265637#1" id="truck157" to="-48182870#0" type="truck_petrol"/>
 <trip depart="3138.70" departLane="best" from="3498235#0" id="truck158" to="-3100845#1" type="truck_petrol"/>
 <trip depart="3158.56" departLane="best" departSpeed="max" from="-143882122#1" id="truck159" to="-26492439" type="truck_petrol"/>
 <trip depart="3178.43" departLane="best" from="-3101255#12" id="truck160" to="48304698#4" type="truck_petrol"/>
 <trip depart="3198.29" departLane="best" from="749266346#8" id="truck161" to="-3993570#30" type="truck_petrol"/>
 <trip depart="3218.16" departLane="best" from="25494555#0" id="truck162" to="-846982040#3" type="truck_petrol"/>
 <trip depart="3238.03" departLane="best" from="645950724#1" id="truck163" to="-25494866#2" type="truck_petrol"/>
 <trip depart="3257.89" departLane="best" departSpeed="max" from="26492443" id="truck164" to="-48304687" type="truck_hybrid"/>
 <trip depart="3277.76" departLane="best" departSpeed="max" from="198889467" id="truck165" to="198659945#0" type="truck_petrol"/>
 <trip depart="3297.62" departLane="best" departSpeed="max" from="-43655377#2" id="truck166" to="24931534#2" type="truck_petrol"/>
 <trip depart="3317.49" departLane="best" from="-25584907#0" id="truck167" to="25588134" type="truck_hybrid"/>
 <trip depart="3337.35" departLane="best" departSpeed="max" from="-1002325035#1" id="truck168" to="590562901" type="truck_petrol"/>
 <trip depart="3357.22" departLane="best" departSpeed="max" from="133061553#0" id="truck169" to="25740235#0" type="truck_petrol"/>
 <trip depart="3377.08" departLane="best" from="26492492" id="truck170" to="25584745#0" type="truck_petrol"/>
 <trip depart="3396.95" departLane="best" departSpeed="max" from="-38547233" id="truck171" to="-198725742" type="truck_petrol"/>
 <trip depart="3416.81" departLane="best" from="25584699#3" id="truck172" to="-48304698#2" type="truck_petrol"/>
 <trip depart="3436.68" departLane="best" from="-298490301#2" id="truck173" to="4382048" type="truck_petrol"/>
 <trip depart="3456.54" departLane="best" departSpeed="max" from="26492401#0" id="truck174" to="-48143411#0" type="truck_hybrid"/>
 <trip depart="3476.41" departLane="best" departSpeed="max" from="-27056361#2" id="truck175" to="-88050327#1" type="truck_hybrid"/>
 <trip depart="3496.27" departLane="best" from="-48304683#5" id="truck176" to="-45105197#5" type="truck_petrol"/>
 <trip depart="3516.14" departLane="best" departSpeed="max" from="-22983476#1" id="truck177" to="1025820809" type="truck_petrol"/>
 <trip depart="3536.00" departLane="best" from="48964101#0" id="truck178" to="25494993#0" type="truck_petrol"/>
 <trip depart="3555.87" departLane="best" from="-26492396#3" id="truck179" to="198889446" type="truck_petrol"/>
 <trip depart="3575.73" departLane="best" departSpeed="max" from="-1002325035#1" id="truck180" to="-43655376#5" type="truck_petrol"/>
 <trip depart="3595.60" departLane="best" from="-497238810#0" id="truck181" to="24931534#9" type="truck_petrol"/>
 <trip depart="3615.46" departLane="best" departSpeed="max" from="25584689#0" id="truck182" to="149875852" type="truck_petrol"/>
 <trip depart="3635.33" departLane="best" departSpeed="max" from="-708283031" id="truck183" to="501712767#1" type="truck_petrol"/>
 <trip depart="3655.19" departLane="best" from="3498236#0" id="truck184" to="-260452553#1" type="truck_petrol"/>
 <trip depart="3675.06" departLane="best" from="25446124#0" id="truck185" to="-48307181#1" type="truck_petrol"/>
 <trip depart="3694.92" departLane="best" from="407971481#0" id="truck186" to="26632421#1" type="truck_hybrid"/>
 <trip depart="3714.79" departLane="best" from="25584743#7" id="truck187" to="-30116390#13" type="truck_petrol"/>
 <trip depart="3734.65" departLane="best" departSpeed="max" from="-25584694#21" id="truck188" to="-143882122#0" type="truck_petrol"/>
 <trip depart="3754.52" departLane="best" departSpeed="max" from="-25584903" id="truck189" to="155986588" type="truck_petrol"/>
 <trip depart="3774.39" departLane="best" departSpeed="max" from="48304683#0" id="truck190" to="-198889407#1" type="truck_petrol"/>
 <trip depart="3794.25" departLane="best" from="-48876189#17" id="truck191" to="25495421#0" type="truck_hybrid"/>
 <trip depart="3814.12" departLane="best" departSpeed="max" from="-25567476#1" id="truck192" to="25584905" type="truck_petrol"/>
 <trip depart="3833.98" departLane="best" departSpeed="max" from="25584689#0" id="truck193" to="-11122804#1" type="truck_petrol"/>
 <trip depart="3853.85" departLane="best" from="298490301#3" id="truck194" to="30116502#0" type="truck_petrol"/>
 <trip depart="3893.58" departLane="best" from="-25495037#7" id="truck196" to="708283031" type="truck_petrol"/>
 <trip depart="3913.44" departLane="best" from="11122804#7" id="truck197" to="-171328770#3" type="truck_petrol"/>
 <trip depart="3933.31" departLane="best" departSpeed="max" from="-25584905" id="truck198" to="45105196#0" type="truck_petrol"/>
 <trip depart="3953.17" departLane="best" from="25584729#6" id="truck199" to="776019936" type="truck_petrol"/>
 <trip depart="3973.04" departLane="best" from="198889405" id="truck200" to="688894351" type="truck_petrol"/>
 <trip depart="3992.90" departLane="best" from="48876348#0" id="truck201" to="25494979" type="truck_petrol"/>
 <trip depart="4012.77" departLane="best" departSpeed="max" from="26492401#0" id="truck202" to="198659942#0" type="truck_petrol"/>
 <trip depart="4032.63" departLane="best" from="4374464#7" id="truck203" to="198889446" type="truck_petrol"/>
 <trip depart="4052.50" departLane="best" departSpeed="max" from="48942315" id="truck204" to="26406771" type="truck_petrol"/>
 <trip depart="4072.36" departLane="best" from="-708283032#1" id="truck205" to="-34776540" type="truck_petrol"/>
 <trip depart="4092.23" departLane="best" departSpeed="max" from="-25584904" id="truck206" to="25544997#3" type="truck_petrol"/>
 <trip depart="4112.09" departLane="best" from="3101255#5" id="truck207" to="198725745" type="truck_petrol"/>
 <trip depart="4131.96" departLane="best" from="23433402" id="truck208" to="-374739431" type="truck_petrol"/>
 <trip depart="4151.82" departLane="best" departSpeed="max" from="-198659944#1" id="truck209" to="-43655376#1" type="truck_hybrid"/>
 <trip depart="4171.69" departLane="best" departSpeed="max" from="-25740233#7" id="truck210" to="-48304695" type="truck_petrol"/>
 <trip depart="4191.55" departLane="best" departSpeed="max" from="133061554#0" id="truck211" to="-25584729#5" type="truck_hybrid"/>
 <trip depart="4211.42" departLane="best" from="-25584827" id="truck212" to="25584904" type="truck_hybrid"/>
 <trip depart="4231.28" departLane="best" from="26406655#0" id="truck213" to="-198659944#0" type="truck_hybrid"/>
 <trip depart="4271.01" departLane="best" from="-48876193#3" id="truck215" to="502413863" type="truck_petrol"/>
 <trip depart="4290.88" departLane="best" departSpeed="max" from="48304687" id="truck216" to="30102409#0" type="truck_petrol"/>
 <trip depart="4310.75" departLane="best" from="-43654884#9" id="truck217" to="-11122804#1" type="truck_petrol"/>
 <trip depart="4330.61" departLane="best" from="-3498238#8" id="truck218" to="26632421#1" type="truck_petrol"/>
 <trip depart="4350.48" departLane="best" departSpeed="max" from="48304686" id="truck219" to="689303712#2" type="truck_petrol"/>
 <trip depart="4370.34" departLane="best" from="-48876190#9" id="truck220" to="26492391#7" type="truck_petrol"/>
 <trip depart="4390.21" departLane="best" departSpeed="max" from="143882122#0" id="truck221" to="25494761#0" type="truck_petrol"/>
 <trip depart="4410.07" departLane="best" departSpeed="max" from="-25584741#2" id="truck222" to="-30102409#5" type="truck_petrol"/>
 <trip depart="4429.94" departLane="best" from="-501712767#5" id="truck223" to="-143884452#6" type="truck_petrol"/>
 <trip depart="4449.80" departLane="best" from="-339889572#4" id="truck224" to="25584835" type="truck_petrol"/>
 <trip depart="4469.67" departLane="best" departSpeed="max" from="-48304691#7" id="truck225" to="-25740225#0" type="truck_petrol"/>
 <trip depart="4489.53" departLane="best" from="-682270693#2" id="truck226" to="-25584689#0" type="truck_hybrid"/>
 <trip depart="4509.40" departLane="best" from="22983441#7" id="truck227" to="-143882125#13" type="truck_petrol"/>
 <trip depart="4529.26" departLane="best" from="-145011973#6" id="truck228" to="25567476#0" type="truck_hybrid"/>
 <trip depart="4549.13" departLane="best" from="-25010931#0" id="truck229" to="148156075#0" type="truck_hybrid"/>
 <trip depart="4568.99" departLane="best" departSpeed="max" from="-156163483#5" id="truck230" to="-682267085#1" type="truck_petrol"/>
 <trip depart="4588.86" departLane="best" departSpeed="max" from="-25584706" id="truck231" to="-48304697#1" type="truck_petrol"/>
 <trip depart="4608.72" departLane="best" from="3100845#3" id="truck232" to="-682267085#1" type="truck_petrol"/>
 <trip depart="4628.59" departLane="best" from="30102409#0" id="truck233" to="43654884#1" type="truck_petrol"/>
 <trip depart="4648.45" departLane="best" departSpeed="max" from="-25584906" id="truck234" to="-198889467" type="truck_petrol"/>
 <trip depart="4668.32" departLane="best" from="948481251" id="truck235" to="-48942037#5" type="truck_petrol"/>
 <trip depart="4688.18" departLane="best" from="25495037#6" id="truck236" to="329741491#0" type="truck_petrol"/>
 <trip depart="4708.05" departLane="best" from="25495122" id="truck237" to="26639156#0" type="truck_petrol"/>
 <trip depart="4727.91" departLane="best" from="682263351#0" id="truck238" to="-26492445" type="truck_petrol"/>