<?xml version="1.0" encoding="UTF-8"?>

<!-- generated on 2022-11-29 19:47:43 by Eclipse SUMO netconvert Version 1.14.1
<configuration xmlns:xsi="http://www.w3.org/2001/XMLSchema-instance" xsi:noNamespaceSchemaLocation="http://sumo.dlr.de/xsd/netconvertConfiguration.xsd">

    <input>
        <type-files value="/opt/homebrew/opt/sumo/share/sumo/data/typemap/osmNetconvert.typ.xml"/>
        <osm-files value="osm_bbox.osm.xml.gz"/>
    </input>

    <output>
        <output-file value="osm.net.xml"/>
        <output.street-names value="true"/>
        <output.original-names value="true"/>
    </output>

    <projection>
        <proj.utm value="true"/>
    </projection>

    <processing>
        <geometry.remove value="true"/>
        <roundabouts.guess value="true"/>
    </processing>

    <tls_building>
        <tls.discard-simple value="true"/>
        <tls.join value="true"/>
        <tls.guess-signals value="true"/>
        <tls.default-type value="actuated"/>
    </tls_building>

    <ramp_guessing>
        <ramps.guess value="true"/>
    </ramp_guessing>

    <edge_removal>
        <keep-edges.by-vclass value="passenger"/>
    </edge_removal>

    <junctions>
        <junctions.join value="true"/>
        <junctions.corner-detail value="5"/>
    </junctions>

    <report>
        <verbose value="true"/>
    </report>

</configuration>
-->

<net version="1.9" junctionCornerDetail="5" limitTurnSpeed="5.50" xmlns:xsi="http://www.w3.org/2001/XMLSchema-instance" xsi:noNamespaceSchemaLocation="http://sumo.dlr.de/xsd/net_file.xsd">

    <location netOffset="-342197.54,-6183366.12" convBoundary="0.00,0.00,4511.83,3941.37" origBoundary="12.482672,55.769945,12.570999,55.807043" projParameter="+proj=utm +zone=33 +ellps=WGS84 +datum=WGS84 +units=m +no_defs"/>

    <type id="highway.bridleway" priority="1" numLanes="1" speed="2.78" allow="pedestrian" oneway="1" width="2.00"/>
    <type id="highway.bus_guideway" priority="1" numLanes="1" speed="27.78" allow="bus" oneway="1"/>
    <type id="highway.cycleway" priority="1" numLanes="1" speed="5.56" allow="bicycle" oneway="0" width="1.00"/>
    <type id="highway.footway" priority="1" numLanes="1" speed="2.78" allow="pedestrian" oneway="1" width="2.00"/>
    <type id="highway.ford" priority="1" numLanes="1" speed="2.78" allow="army" oneway="0"/>
    <type id="highway.living_street" priority="2" numLanes="1" speed="2.78" disallow="tram rail_urban rail rail_electric rail_fast ship" oneway="0"/>
    <type id="highway.motorway" priority="14" numLanes="2" speed="39.44" allow="private emergency authority army vip passenger hov taxi bus coach delivery truck trailer motorcycle evehicle custom1 custom2" oneway="1"/>
    <type id="highway.motorway_link" priority="9" numLanes="1" speed="22.22" allow="private emergency authority army vip passenger hov taxi bus coach delivery truck trailer motorcycle evehicle custom1 custom2" oneway="1"/>
    <type id="highway.path" priority="1" numLanes="1" speed="5.56" allow="pedestrian bicycle" oneway="0" width="2.00"/>
    <type id="highway.pedestrian" priority="1" numLanes="1" speed="2.78" allow="pedestrian" oneway="1" width="2.00"/>
    <type id="highway.primary" priority="12" numLanes="2" speed="27.78" disallow="tram rail_urban rail rail_electric rail_fast ship" oneway="0"/>
    <type id="highway.primary_link" priority="7" numLanes="1" speed="22.22" disallow="tram rail_urban rail rail_electric rail_fast ship" oneway="0"/>
    <type id="highway.raceway" priority="15" numLanes="2" speed="83.33" allow="vip" oneway="0"/>
    <type id="highway.residential" priority="3" numLanes="1" speed="13.89" disallow="tram rail_urban rail rail_electric rail_fast ship" oneway="0"/>
    <type id="highway.secondary" priority="11" numLanes="1" speed="27.78" disallow="tram rail_urban rail rail_electric rail_fast ship" oneway="0"/>
    <type id="highway.secondary_link" priority="6" numLanes="1" speed="22.22" disallow="tram rail_urban rail rail_electric rail_fast ship" oneway="0"/>
    <type id="highway.service" priority="1" numLanes="1" speed="5.56" allow="pedestrian delivery bicycle" oneway="0"/>
    <type id="highway.stairs" priority="1" numLanes="1" speed="1.39" allow="pedestrian" oneway="1" width="2.00"/>
    <type id="highway.step" priority="1" numLanes="1" speed="1.39" allow="pedestrian" oneway="1" width="2.00"/>
    <type id="highway.steps" priority="1" numLanes="1" speed="1.39" allow="pedestrian" oneway="1" width="2.00"/>
    <type id="highway.tertiary" priority="10" numLanes="1" speed="22.22" disallow="tram rail_urban rail rail_electric rail_fast ship" oneway="0"/>
    <type id="highway.tertiary_link" priority="5" numLanes="1" speed="22.22" disallow="tram rail_urban rail rail_electric rail_fast ship" oneway="0"/>
    <type id="highway.track" priority="1" numLanes="1" speed="5.56" allow="pedestrian motorcycle moped bicycle" oneway="0"/>
    <type id="highway.trunk" priority="13" numLanes="2" speed="27.78" disallow="pedestrian bicycle tram rail_urban rail rail_electric rail_fast ship" oneway="0"/>
    <type id="highway.trunk_link" priority="8" numLanes="1" speed="22.22" disallow="pedestrian bicycle tram rail_urban rail rail_electric rail_fast ship" oneway="0"/>
    <type id="highway.unclassified" priority="4" numLanes="1" speed="13.89" disallow="tram rail_urban rail rail_electric rail_fast ship" oneway="0"/>
    <type id="highway.unsurfaced" priority="1" numLanes="1" speed="8.33" disallow="tram rail_urban rail rail_electric rail_fast ship" oneway="0"/>
    <type id="railway.highspeed" priority="21" numLanes="1" speed="69.44" allow="rail_fast" oneway="1"/>
    <type id="railway.light_rail" priority="19" numLanes="1" speed="27.78" allow="rail_urban" oneway="1"/>
    <type id="railway.preserved" priority="16" numLanes="1" speed="27.78" allow="rail" oneway="1"/>
    <type id="railway.rail" priority="20" numLanes="1" speed="44.44" allow="rail" oneway="1"/>
    <type id="railway.subway" priority="18" numLanes="1" speed="27.78" allow="rail_urban" oneway="1"/>
    <type id="railway.tram" priority="17" numLanes="1" speed="13.89" allow="tram" oneway="1"/>

    <edge id=":1023367491_0" function="internal">
        <lane id=":1023367491_0_0" index="0" disallow="tram rail_urban rail rail_electric rail_fast ship" speed="13.89" length="13.89" shape="3561.05,955.97 3553.14,944.55"/>
    </edge>
    <edge id=":1023367491_1" function="internal">
        <lane id=":1023367491_1_0" index="0" disallow="tram rail_urban rail rail_electric rail_fast ship" speed="7.86" length="4.02" shape="3561.05,955.97 3559.35,952.33"/>
    </edge>
    <edge id=":1023367491_2" function="internal">
        <lane id=":1023367491_2_0" index="0" disallow="tram rail_urban rail rail_electric rail_fast ship" speed="3.65" length="1.44" shape="3561.05,955.97 3561.06,954.53"/>
    </edge>
    <edge id=":1023367491_9" function="internal">
        <lane id=":1023367491_9_0" index="0" disallow="tram rail_urban rail rail_electric rail_fast ship" speed="7.86" length="10.49" shape="3559.35,952.33 3559.29,949.10 3560.87,946.28 3564.09,943.87"/>
    </edge>
    <edge id=":1023367491_10" function="internal">
        <lane id=":1023367491_10_0" index="0" disallow="tram rail_urban rail rail_electric rail_fast ship" speed="3.65" length="3.23" shape="3561.06,954.53 3561.51,953.76 3562.40,953.65 3563.73,954.22"/>
    </edge>
    <edge id=":1023367491_3" function="internal">
        <lane id=":1023367491_3_0" index="0" disallow="tram rail_urban rail rail_electric rail_fast ship" speed="6.34" length="9.04" shape="3565.62,946.68 3563.62,948.18 3562.63,949.94 3562.67,951.95 3563.73,954.22"/>
    </edge>
    <edge id=":1023367491_4" function="internal">
        <lane id=":1023367491_4_0" index="0" disallow="tram rail_urban rail rail_electric rail_fast ship" speed="8.21" length="14.20" shape="3565.62,946.68 3561.75,948.23 3558.38,948.39 3555.51,947.17 3553.14,944.55"/>
    </edge>
    <edge id=":1023367491_5" function="internal">
        <lane id=":1023367491_5_0" index="0" disallow="tram rail_urban rail rail_electric rail_fast ship" speed="3.65" length="4.67" shape="3565.62,946.68 3564.19,946.55 3563.45,946.04 3563.42,945.15 3564.09,943.87"/>
    </edge>
    <edge id=":1023367491_6" function="internal">
        <lane id=":1023367491_6_0" index="0" disallow="tram rail_urban rail rail_electric rail_fast ship" speed="6.86" length="9.62" shape="3555.62,942.49 3557.21,944.24 3559.16,945.06 3561.45,944.93 3564.09,943.87"/>
    </edge>
    <edge id=":1023367491_7" function="internal">
        <lane id=":1023367491_7_0" index="0" disallow="tram rail_urban rail rail_electric rail_fast ship" speed="13.89" length="14.26" shape="3555.62,942.49 3563.73,954.22"/>
    </edge>
    <edge id=":1023367491_8" function="internal">
        <lane id=":1023367491_8_0" index="0" disallow="tram rail_urban rail rail_electric rail_fast ship" speed="3.66" length="1.45" shape="3555.62,942.49 3555.78,943.93"/>
    </edge>
    <edge id=":1023367491_11" function="internal">
        <lane id=":1023367491_11_0" index="0" disallow="tram rail_urban rail rail_electric rail_fast ship" speed="3.66" length="3.26" shape="3555.78,943.93 3555.41,944.76 3554.54,944.96 3553.14,944.55"/>
    </edge>
    <edge id=":1023367626_0" function="internal">
        <lane id=":1023367626_0_0" index="0" disallow="tram rail_urban rail rail_electric rail_fast ship" speed="3.65" length="4.67" shape="3676.83,908.62 3678.21,909.04 3678.83,909.69 3678.68,910.57 3677.76,911.69"/>
    </edge>
    <edge id=":1023367801_0" function="internal">
        <lane id=":1023367801_0_0" index="0" disallow="tram rail_urban rail rail_electric rail_fast ship" speed="3.65" length="4.67" shape="3695.39,983.24 3696.76,983.68 3697.37,984.34 3697.20,985.22 3696.26,986.32"/>
    </edge>
    <edge id=":1023367862_0" function="internal">
        <lane id=":1023367862_0_0" index="0" disallow="tram rail_urban rail rail_electric rail_fast ship" speed="13.89" length="14.41" shape="3603.87,1021.34 3595.98,1009.29"/>
    </edge>
    <edge id=":1023367862_1" function="internal">
        <lane id=":1023367862_1_0" index="0" disallow="tram rail_urban rail rail_electric rail_fast ship" speed="7.92" length="4.10" shape="3603.87,1021.34 3602.19,1017.74 3602.19,1017.60"/>
    </edge>
    <edge id=":1023367862_2" function="internal">
        <lane id=":1023367862_2_0" index="0" disallow="tram rail_urban rail rail_electric rail_fast ship" speed="3.65" length="1.44" shape="3603.87,1021.34 3603.88,1019.89"/>
    </edge>
    <edge id=":1023367862_9" function="internal">
        <lane id=":1023367862_9_0" index="0" disallow="tram rail_urban rail rail_electric rail_fast ship" speed="7.92" length="10.27" shape="3602.19,1017.60 3602.11,1014.52 3603.61,1011.67 3606.71,1009.19"/>
    </edge>
    <edge id=":1023367862_10" function="internal">
        <lane id=":1023367862_10_0" index="0" disallow="tram rail_urban rail rail_electric rail_fast ship" speed="3.65" length="3.23" shape="3603.88,1019.89 3604.33,1019.12 3605.22,1019.02 3606.55,1019.58"/>
    </edge>
    <edge id=":1023367862_3" function="internal">
        <lane id=":1023367862_3_0" index="0" disallow="tram rail_urban rail rail_electric rail_fast ship" speed="6.41" length="9.04" shape="3608.33,1011.95 3606.39,1013.51 3605.44,1015.30 3605.49,1017.32 3606.55,1019.58"/>
    </edge>
    <edge id=":1023367862_4" function="internal">
        <lane id=":1023367862_4_0" index="0" disallow="tram rail_urban rail rail_electric rail_fast ship" speed="8.16" length="14.26" shape="3608.33,1011.95 3604.69,1013.47 3601.42,1013.54 3598.51,1012.14 3595.98,1009.29"/>
    </edge>
    <edge id=":1023367862_5" function="internal">
        <lane id=":1023367862_5_0" index="0" disallow="tram rail_urban rail rail_electric rail_fast ship" speed="3.65" length="4.67" shape="3608.33,1011.95 3606.89,1011.87 3606.14,1011.38 3606.08,1010.49 3606.71,1009.19"/>
    </edge>
    <edge id=":1023367862_6" function="internal">
        <lane id=":1023367862_6_0" index="0" disallow="tram rail_urban rail rail_electric rail_fast ship" speed="6.70" length="9.28" shape="3598.66,1007.53 3600.29,1009.37 3602.18,1010.26 3604.32,1010.20 3606.71,1009.19"/>
    </edge>
    <edge id=":1023367862_7" function="internal">
        <lane id=":1023367862_7_0" index="0" disallow="tram rail_urban rail rail_electric rail_fast ship" speed="13.89" length="14.41" shape="3598.66,1007.53 3606.55,1019.58"/>
    </edge>
    <edge id=":1023367862_8" function="internal">
        <lane id=":1023367862_8_0" index="0" disallow="tram rail_urban rail rail_electric rail_fast ship" speed="3.65" length="1.44" shape="3598.66,1007.53 3598.64,1008.97"/>
    </edge>
    <edge id=":1023367862_11" function="internal">
        <lane id=":1023367862_11_0" index="0" disallow="tram rail_urban rail rail_electric rail_fast ship" speed="3.65" length="3.23" shape="3598.64,1008.97 3598.19,1009.75 3597.31,1009.85 3595.98,1009.29"/>
    </edge>
    <edge id=":102991812_0" function="internal">
        <lane id=":102991812_0_0" index="0" disallow="tram rail_urban rail rail_electric rail_fast ship" speed="13.89" length="8.67" shape="1210.57,609.86 1208.56,608.25 1207.26,607.06 1206.07,605.76 1204.38,603.82"/>
    </edge>
    <edge id=":102991812_1" function="internal">
        <lane id=":102991812_1_0" index="0" disallow="tram rail_urban rail rail_electric rail_fast ship" speed="3.66" length="1.45" shape="1210.57,609.86 1210.27,608.44"/>
    </edge>
    <edge id=":102991812_6" function="internal">
        <lane id=":102991812_6_0" index="0" disallow="tram rail_urban rail rail_electric rail_fast ship" speed="3.66" length="3.25" shape="1210.27,608.44 1210.54,607.58 1211.40,607.29 1212.82,607.56"/>
    </edge>
    <edge id=":102991812_2" function="internal">
        <lane id=":102991812_2_0" index="0" disallow="tram rail_urban rail rail_electric rail_fast ship" speed="13.89" length="8.44" shape="1206.78,601.70 1208.43,603.59 1209.60,604.85 1210.87,606.00 1212.82,607.56"/>
    </edge>
    <edge id=":102991812_3" function="internal">
        <lane id=":102991812_3_0" index="0" disallow="tram rail_urban rail rail_electric rail_fast ship" speed="3.65" length="1.44" shape="1206.78,601.70 1206.97,603.13"/>
    </edge>
    <edge id=":102991812_7" function="internal">
        <lane id=":102991812_7_0" index="0" disallow="tram rail_urban rail rail_electric rail_fast ship" speed="3.65" length="3.23" shape="1206.97,603.13 1206.64,603.96 1205.77,604.19 1204.38,603.82"/>
    </edge>
    <edge id=":102991812_4" function="internal">
        <lane id=":102991812_4_0" index="0" disallow="tram rail_urban rail rail_electric rail_fast ship" speed="10.26" length="7.95" shape="1205.95,611.31 1206.01,608.93 1206.07,607.20 1205.68,605.66 1204.38,603.82"/>
    </edge>
    <edge id=":102991812_5" function="internal">
        <lane id=":102991812_5_0" index="0" disallow="tram rail_urban rail rail_electric rail_fast ship" speed="6.07" length="11.76" shape="1205.95,611.31 1206.28,607.60 1207.54,605.74 1209.72,605.72 1212.82,607.56"/>
    </edge>
    <edge id=":102991832_0" function="internal">
        <lane id=":102991832_0_0" index="0" disallow="tram rail_urban rail rail_electric rail_fast ship" speed="6.52" length="8.79" shape="1382.66,768.66 1380.93,767.01 1379.07,766.28 1377.08,766.47 1374.96,767.59"/>
    </edge>
    <edge id=":102991832_1" function="internal">
        <lane id=":102991832_1_0" index="0" disallow="tram rail_urban rail rail_electric rail_fast ship" speed="13.89" length="13.97" shape="1382.66,768.66 1374.47,757.35"/>
    </edge>
    <edge id=":102991832_2" function="internal">
        <lane id=":102991832_2_0" index="0" disallow="tram rail_urban rail rail_electric rail_fast ship" speed="3.65" length="1.44" shape="1382.66,768.66 1382.55,767.22"/>
    </edge>
    <edge id=":102991832_9" function="internal">
        <lane id=":102991832_9_0" index="0" disallow="tram rail_urban rail rail_electric rail_fast ship" speed="3.65" length="3.23" shape="1382.55,767.22 1382.93,766.41 1383.81,766.23 1385.18,766.68"/>
    </edge>
    <edge id=":102991832_3" function="internal">
        <lane id=":102991832_3_0" index="0" disallow="tram rail_urban rail rail_electric rail_fast ship" speed="13.89" length="13.71" shape="1377.13,755.58 1385.18,766.68"/>
    </edge>
    <edge id=":102991832_4" function="internal">
        <lane id=":102991832_4_0" index="0" disallow="tram rail_urban rail rail_electric rail_fast ship" speed="8.01" length="3.76" shape="1377.13,755.58 1378.76,758.97"/>
    </edge>
    <edge id=":102991832_5" function="internal">
        <lane id=":102991832_5_0" index="0" disallow="tram rail_urban rail rail_electric rail_fast ship" speed="3.65" length="1.44" shape="1377.13,755.58 1377.13,757.02"/>
    </edge>
    <edge id=":102991832_10" function="internal">
        <lane id=":102991832_10_0" index="0" disallow="tram rail_urban rail rail_electric rail_fast ship" speed="8.01" length="10.04" shape="1378.76,758.97 1378.94,762.10 1377.67,764.98 1374.96,767.59"/>
    </edge>
    <edge id=":102991832_11" function="internal">
        <lane id=":102991832_11_0" index="0" disallow="tram rail_urban rail rail_electric rail_fast ship" speed="3.65" length="3.23" shape="1377.13,757.02 1376.69,757.79 1375.80,757.91 1374.47,757.35"/>
    </edge>
    <edge id=":102991832_6" function="internal">
        <lane id=":102991832_6_0" index="0" disallow="tram rail_urban rail rail_electric rail_fast ship" speed="6.51" length="8.78" shape="1373.09,764.99 1374.81,763.33 1375.62,761.50 1375.50,759.51 1374.47,757.35"/>
    </edge>
    <edge id=":102991832_7" function="internal">
        <lane id=":102991832_7_0" index="0" disallow="tram rail_urban rail rail_electric rail_fast ship" speed="8.02" length="13.80" shape="1373.09,764.99 1376.42,763.24 1379.54,762.94 1382.46,764.08 1385.18,766.68"/>
    </edge>
    <edge id=":102991832_8" function="internal">
        <lane id=":102991832_8_0" index="0" disallow="tram rail_urban rail rail_electric rail_fast ship" speed="3.65" length="4.67" shape="1373.09,764.99 1374.53,764.94 1375.32,765.35 1375.46,766.24 1374.96,767.59"/>
    </edge>
    <edge id=":102991839_0" function="internal">
        <lane id=":102991839_0_0" index="0" disallow="tram rail_urban rail rail_electric rail_fast ship" speed="11.04" length="11.83" shape="1409.18,795.17 1406.88,794.49 1404.20,794.42 1401.13,794.96 1397.68,796.12"/>
    </edge>
    <edge id=":102991839_1" function="internal">
        <lane id=":102991839_1_0" index="0" disallow="tram rail_urban rail rail_electric rail_fast ship" speed="13.89" length="14.83" shape="1409.18,795.17 1405.91,793.40 1402.87,791.31 1400.02,788.96 1397.32,786.38"/>
    </edge>
    <edge id=":102991839_2" function="internal">
        <lane id=":102991839_2_0" index="0" disallow="tram rail_urban rail rail_electric rail_fast ship" speed="3.65" length="1.45" shape="1409.18,795.17 1408.52,793.88"/>
    </edge>
    <edge id=":102991839_9" function="internal">
        <lane id=":102991839_9_0" index="0" disallow="tram rail_urban rail rail_electric rail_fast ship" speed="3.65" length="3.24" shape="1408.52,793.88 1408.57,792.98 1409.31,792.48 1410.75,792.37"/>
    </edge>
    <edge id=":102991839_3" function="internal">
        <lane id=":102991839_3_0" index="0" disallow="tram rail_urban rail rail_electric rail_fast ship" speed="13.89" length="14.20" shape="1399.42,783.95 1402.03,786.46 1404.70,788.70 1407.56,790.66 1410.75,792.37"/>
    </edge>
    <edge id=":102991839_4" function="internal">
        <lane id=":102991839_4_0" index="0" disallow="tram rail_urban rail rail_electric rail_fast ship" speed="7.44" length="4.45" shape="1399.42,783.95 1402.12,787.48"/>
    </edge>
    <edge id=":102991839_5" function="internal">
        <lane id=":102991839_5_0" index="0" disallow="tram rail_urban rail rail_electric rail_fast ship" speed="3.65" length="1.45" shape="1399.42,783.95 1399.80,785.34"/>
    </edge>
    <edge id=":102991839_10" function="internal">
        <lane id=":102991839_10_0" index="0" disallow="tram rail_urban rail rail_electric rail_fast ship" speed="7.44" length="11.38" shape="1402.12,787.48 1402.36,787.79 1403.05,791.10 1401.49,793.87 1397.68,796.12"/>
    </edge>
    <edge id=":102991839_11" function="internal">
        <lane id=":102991839_11_0" index="0" disallow="tram rail_urban rail rail_electric rail_fast ship" speed="3.65" length="3.24" shape="1399.80,785.34 1399.59,786.21 1398.76,786.56 1397.32,786.38"/>
    </edge>
    <edge id=":102991839_6" function="internal">
        <lane id=":102991839_6_0" index="0" disallow="tram rail_urban rail rail_electric rail_fast ship" speed="5.76" length="8.94" shape="1396.26,793.24 1398.44,791.97 1399.34,790.40 1398.97,788.54 1397.32,786.38"/>
    </edge>
    <edge id=":102991839_7" function="internal">
        <lane id=":102991839_7_0" index="0" disallow="tram rail_urban rail rail_electric rail_fast ship" speed="12.34" length="14.91" shape="1396.26,793.24 1400.46,791.86 1404.28,791.26 1407.71,791.43 1410.75,792.37"/>
    </edge>
    <edge id=":102991839_8" function="internal">
        <lane id=":102991839_8_0" index="0" disallow="tram rail_urban rail rail_electric rail_fast ship" speed="3.65" length="4.69" shape="1396.26,793.24 1397.69,793.42 1398.41,793.97 1398.40,794.86 1397.68,796.12"/>
    </edge>
    <edge id=":102991848_0" function="internal">
        <lane id=":102991848_0_0" index="0" disallow="tram rail_urban rail rail_electric rail_fast ship" speed="13.89" length="14.19" shape="1448.21,812.91 1445.07,811.11 1442.00,809.47 1438.88,807.95 1435.56,806.51"/>
    </edge>
    <edge id=":102991848_1" function="internal">
        <lane id=":102991848_1_0" index="0" disallow="tram rail_urban rail rail_electric rail_fast ship" speed="13.34" length="3.02" shape="1448.21,812.91 1446.03,810.82"/>
    </edge>
    <edge id=":102991848_2" function="internal">
        <lane id=":102991848_2_0" index="0" disallow="tram rail_urban rail rail_electric rail_fast ship" speed="3.65" length="1.44" shape="1448.21,812.91 1447.58,811.61"/>
    </edge>
    <edge id=":102991848_9" function="internal">
        <lane id=":102991848_9_0" index="0" disallow="tram rail_urban rail rail_electric rail_fast ship" speed="13.34" length="11.28" shape="1446.03,810.82 1445.72,810.52 1444.31,807.39 1443.41,803.84 1442.44,800.21"/>
    </edge>
    <edge id=":102991848_10" function="internal">
        <lane id=":102991848_10_0" index="0" disallow="tram rail_urban rail rail_electric rail_fast ship" speed="3.65" length="3.23" shape="1447.58,811.61 1447.64,810.72 1448.39,810.23 1449.83,810.15"/>
    </edge>
    <edge id=":102991848_3" function="internal">
        <lane id=":102991848_3_0" index="0" disallow="tram rail_urban rail rail_electric rail_fast ship" speed="10.30" length="10.11" shape="1445.92,800.98 1446.88,804.55 1447.84,807.26 1448.83,809.13 1449.83,810.15"/>
    </edge>
    <edge id=":102991848_4" function="internal">
        <lane id=":102991848_4_0" index="0" disallow="tram rail_urban rail rail_electric rail_fast ship" speed="7.19" length="16.61" shape="1445.92,800.98 1446.24,805.38 1444.61,807.77 1441.05,808.15 1435.56,806.51"/>
    </edge>
    <edge id=":102991848_5" function="internal">
        <lane id=":102991848_5_0" index="0" disallow="tram rail_urban rail rail_electric rail_fast ship" speed="3.83" length="5.21" shape="1445.92,800.98 1444.77,802.10 1443.80,802.34 1443.03,801.71 1442.44,800.21"/>
    </edge>
    <edge id=":102991848_6" function="internal">
        <lane id=":102991848_6_0" index="0" disallow="tram rail_urban rail rail_electric rail_fast ship" speed="5.56" length="9.76" shape="1436.93,803.61 1440.17,804.59 1442.17,804.35 1442.93,802.89 1442.44,800.21"/>
    </edge>
    <edge id=":102991848_7" function="internal">
        <lane id=":102991848_7_0" index="0" disallow="tram rail_urban rail rail_electric rail_fast ship" speed="13.89" length="14.48" shape="1436.93,803.61 1440.29,805.08 1443.50,806.64 1446.65,808.33 1449.83,810.15"/>
    </edge>
    <edge id=":102991848_8" function="internal">
        <lane id=":102991848_8_0" index="0" disallow="tram rail_urban rail rail_electric rail_fast ship" speed="3.65" length="1.44" shape="1436.93,803.61 1437.67,804.85"/>
    </edge>
    <edge id=":102991848_11" function="internal">
        <lane id=":102991848_11_0" index="0" disallow="tram rail_urban rail rail_electric rail_fast ship" speed="3.65" length="3.24" shape="1437.67,804.85 1437.69,805.75 1436.99,806.30 1435.56,806.51"/>
    </edge>
    <edge id=":102991863_0" function="internal">
        <lane id=":102991863_0_0" index="0" disallow="tram rail_urban rail rail_electric rail_fast ship" speed="6.84" length="9.42" shape="1511.72,860.80 1510.93,858.48 1509.52,856.90 1507.50,856.05 1504.85,855.95"/>
    </edge>
    <edge id=":102991863_1" function="internal">
        <lane id=":102991863_1_0" index="0" disallow="tram rail_urban rail rail_electric rail_fast ship" speed="13.89" length="14.37" shape="1511.72,860.80 1509.39,846.62"/>
    </edge>
    <edge id=":102991863_2" function="internal">
        <lane id=":102991863_2_0" index="0" disallow="tram rail_urban rail rail_electric rail_fast ship" speed="3.65" length="1.44" shape="1511.72,860.80 1512.30,859.48"/>
    </edge>
    <edge id=":102991863_9" function="internal">
        <lane id=":102991863_9_0" index="0" disallow="tram rail_urban rail rail_electric rail_fast ship" speed="3.65" length="3.23" shape="1512.30,859.48 1513.02,858.95 1513.87,859.20 1514.87,860.24"/>
    </edge>
    <edge id=":102991863_3" function="internal">
        <lane id=":102991863_3_0" index="0" disallow="tram rail_urban rail rail_electric rail_fast ship" speed="13.89" length="14.29" shape="1512.56,846.14 1514.87,860.24"/>
    </edge>
    <edge id=":102991863_4" function="internal">
        <lane id=":102991863_4_0" index="0" disallow="tram rail_urban rail rail_electric rail_fast ship" speed="7.89" length="3.99" shape="1512.56,846.14 1512.59,850.13"/>
    </edge>
    <edge id=":102991863_5" function="internal">
        <lane id=":102991863_5_0" index="0" disallow="tram rail_urban rail rail_electric rail_fast ship" speed="3.65" length="1.44" shape="1512.56,846.14 1511.95,847.45"/>
    </edge>
    <edge id=":102991863_10" function="internal">
        <lane id=":102991863_10_0" index="0" disallow="tram rail_urban rail rail_electric rail_fast ship" speed="7.89" length="10.44" shape="1512.59,850.13 1511.31,853.09 1508.73,855.03 1504.85,855.95"/>
    </edge>
    <edge id=":102991863_11" function="internal">
        <lane id=":102991863_11_0" index="0" disallow="tram rail_urban rail rail_electric rail_fast ship" speed="3.65" length="3.23" shape="1511.95,847.45 1511.21,847.96 1510.36,847.69 1509.39,846.62"/>
    </edge>
    <edge id=":102991863_6" function="internal">
        <lane id=":102991863_6_0" index="0" disallow="tram rail_urban rail rail_electric rail_fast ship" speed="6.38" length="9.04" shape="1504.57,852.76 1507.00,852.19 1508.61,850.97 1509.41,849.12 1509.39,846.62"/>
    </edge>
    <edge id=":102991863_7" function="internal">
        <lane id=":102991863_7_0" index="0" disallow="tram rail_urban rail rail_electric rail_fast ship" speed="8.28" length="14.26" shape="1504.57,852.76 1508.52,852.93 1511.56,854.24 1513.68,856.68 1514.87,860.24"/>
    </edge>
    <edge id=":102991863_8" function="internal">
        <lane id=":102991863_8_0" index="0" disallow="tram rail_urban rail rail_electric rail_fast ship" speed="3.65" length="4.67" shape="1504.57,852.76 1505.83,853.45 1506.30,854.21 1505.97,855.04 1504.85,855.95"/>
    </edge>
    <edge id=":102991875_0" function="internal">
        <lane id=":102991875_0_0" index="0" disallow="tram rail_urban rail rail_electric rail_fast ship" speed="8.04" length="8.14" shape="1952.04,2997.63 1953.96,2998.47 1955.90,2998.78 1957.85,2998.55 1959.83,2997.79"/>
    </edge>
    <edge id=":102991875_1" function="internal">
        <lane id=":102991875_1_0" index="0" disallow="tram rail_urban rail rail_electric rail_fast ship" speed="7.72" length="8.35" shape="1953.45,3007.73 1953.37,3005.24 1952.84,3003.19 1951.86,3001.58 1950.43,3000.40"/>
    </edge>
    <edge id=":102991875_2" function="internal">
        <lane id=":102991875_2_0" index="0" disallow="tram rail_urban rail rail_electric rail_fast ship" speed="9.58" length="12.39" shape="1953.45,3007.73 1953.98,3004.55 1955.22,3001.84 1957.17,2999.58 1959.83,2997.79"/>
    </edge>
    <edge id=":102991889_0" function="internal">
        <lane id=":102991889_0_0" index="0" disallow="tram rail_urban rail rail_electric rail_fast ship" speed="13.89" length="16.48" shape="2564.48,2886.80 2560.52,2886.33 2556.28,2885.93 2552.03,2885.67 2548.05,2885.59"/>
    </edge>
    <edge id=":102991889_1" function="internal">
        <lane id=":102991889_1_0" index="0" disallow="tram rail_urban rail rail_electric rail_fast ship" speed="8.79" length="5.22" shape="2564.48,2886.80 2559.55,2885.64 2559.42,2885.56"/>
    </edge>
    <edge id=":102991889_2" function="internal">
        <lane id=":102991889_2_0" index="0" disallow="tram rail_urban rail rail_electric rail_fast ship" speed="3.65" length="1.44" shape="2564.48,2886.80 2563.39,2885.85"/>
    </edge>
    <edge id=":102991889_9" function="internal">
        <lane id=":102991889_9_0" index="0" disallow="tram rail_urban rail rail_electric rail_fast ship" speed="8.79" length="11.07" shape="2559.42,2885.56 2556.09,2883.63 2554.10,2880.77 2553.57,2877.06"/>
    </edge>
    <edge id=":102991889_10" function="internal">
        <lane id=":102991889_10_0" index="0" disallow="tram rail_urban rail rail_electric rail_fast ship" speed="3.65" length="3.23" shape="2563.39,2885.85 2563.10,2885.00 2563.60,2884.26 2564.89,2883.62"/>
    </edge>
    <edge id=":102991889_3" function="internal">
        <lane id=":102991889_3_0" index="0" disallow="tram rail_urban rail rail_electric rail_fast ship" speed="6.66" length="8.92" shape="2559.96,2877.38 2560.17,2879.86 2561.06,2881.73 2562.63,2882.98 2564.89,2883.62"/>
    </edge>