<?xml version="1.0" encoding="utf-8"?>
<!-- generated on 2022-11-29 19:47:48.449715 by osmWebWizard.py UNKNOWN
<configuration>
    <allow-fringe.min-length value="1000.0"/>
    <end value="32400"/>
    <fringe-factor value="5.0"/>
    <fringe-start-attributes value="departSpeed=&quot;max&quot;"/>
    <lanes value="True"/>
    <min-distance value="300.0"/>
    <net-file value="/Users/hjalte/Documents/DTU/Model Based System Engineering/SUMO/Maps/2022-11-29-19-47-15/osm.net.xml"/>
    <period value="1.6554321682254614"/>
    <route-file value="/Users/hjalte/Documents/DTU/Model Based System Engineering/SUMO/Maps/2022-11-29-19-47-15/osm.passenger.rou.xml"/>
    <trip-attributes value="departLane=&quot;best&quot;"/>
    <output-trip-file value="/Users/hjalte/Documents/DTU/Model Based System Engineering/SUMO/Maps/2022-11-29-19-47-15/osm.passenger.trips.xml"/>
    <prefix value="veh"/>
    <validate value="True"/>
    <vehicle-class value="passenger"/>
</configuration>
-->
<!-- generated on 2022-11-29 19:47:46 by Eclipse SUMO duarouter Version 1.14.1
<configuration xmlns:xsi="http://www.w3.org/2001/XMLSchema-instance" xsi:noNamespaceSchemaLocation="http://sumo.dlr.de/xsd/duarouterConfiguration.xsd">

    <input>
        <net-file value="/Users/hjalte/Documents/DTU/Model%20Based%20System%20Engineering/SUMO/Maps/2022-11-29-19-47-15/osm.net.xml"/>
        <route-files value="/Users/hjalte/Documents/DTU/Model%20Based%20System%20Engineering/SUMO/Maps/2022-11-29-19-47-15/osm.passenger.trips.xml"/>
    </input>

    <output>
        <output-file value="/Users/hjalte/Documents/DTU/Model%20Based%20System%20Engineering/SUMO/Maps/2022-11-29-19-47-15/osm.passenger.trips.xml.tmp"/>
        <alternatives-output value="NUL"/>
        <write-trips value="true"/>
    </output>

    <time>
        <begin value="0"/>
        <end value="32400"/>
    </time>

    <report>
        <no-warnings value="true"/>
        <ignore-errors value="true"/>
        <no-step-log value="true"/>
    </report>

</configuration>
-->
<routes xmlns:xsi="http://www.w3.org/2001/XMLSchema-instance" xsi:noNamespaceSchemaLocation="http://sumo.dlr.de/xsd/routes_file.xsd">
 <vType id="veh_passenger" vClass="passenger"/>
 <trip depart="0.00" departLane="best" departSpeed="max" from="25584694#0" id="veh0" to="-143882125#13" type="veh_petrol"/>
 <trip depart="1.66" departLane="best" from="-26406609" id="veh1" to="-32657406" type="veh_ev"/>
 <trip depart="3.31" departLane="best" from="3100845#1" id="veh2" to="25584902" type="veh_ev"/>
 <trip depart="4.97" departLane="best" departSpeed="max" from="48942316" id="veh3" to="-215614884" type="veh_petrol"/>
 <trip depart="6.62" departLane="best" departSpeed="max" from="-540388562#1" id="veh4" to="-147359137#16" type="veh_petrol"/>
 <trip depart="8.28" departLane="best" from="-25584829#1" id="veh5" to="198725745" type="veh_ev"/>
 <trip depart="9.93" departLane="best" from="-147359137#13" id="veh6" to="-26492492" type="veh_ev"/>
 <trip depart="11.59" departLane="best" from="25584740#3" id="veh7" to="22983427#0" type="veh_ev"/>
 <trip depart="13.24" departLane="best" from="43654886#0" id="veh8" to="-11122804#6" type="veh_ev"/>
 <trip depart="14.90" departLane="best" from="43409517#1" id="veh9" to="25676134#0" type="veh_ev"/>
 <trip depart="16.55" departLane="best" from="-38164074#4" id="veh10" to="-25676198#4" type="veh_petrol"/>
 <trip depart="18.21" departLane="best" from="682270693#1" id="veh11" to="-497238810#4" type="veh_ev"/>
 <trip depart="19.87" departLane="best" departSpeed="max" from="48304695" id="veh12" to="25494979" type="veh_ev"/>
 <trip depart="21.52" departLane="best" from="43654884#3" id="veh13" to="26406771" type="veh_ev"/>
 <trip depart="23.18" departLane="best" departSpeed="max" from="150201718" id="veh14" to="750596646#3" type="veh_ev"/>
 <trip depart="24.83" departLane="best" departSpeed="max" from="-48143413#1" id="veh15" to="22983454#2" type="veh_petrol"/>
 <trip depart="26.49" departLane="best" from="48307181#0" id="veh16" to="25446124#4" type="veh_ev"/>
 <trip depart="28.14" departLane="best" departSpeed="max" from="26492443" id="veh17" to="-160127959#2" type="veh_ev"/>
 <trip depart="29.80" departLane="best" departSpeed="max" from="-25584902" id="veh18" to="-48182870#0" type="veh_ev"/>
 <trip depart="31.45" departLane="best" departSpeed="max" from="-198725744#1" id="veh19" to="-339889572#4" type="veh_ev"/>
 <trip depart="34.76" departLane="best" departSpeed="max" from="25584689#0" id="veh21" to="-682318166" type="veh_petrol"/>
 <trip depart="36.42" departLane="best" from="-45105197#21" id="veh22" to="-30104102#1" type="veh_ev"/>
 <trip depart="38.07" departLane="best" departSpeed="max" from="-25927423#1" id="veh23" to="662025867#0" type="veh_petrol"/>
 <trip depart="39.73" departLane="best" from="25584737#1" id="veh24" to="25494999" type="veh_ev"/>
 <trip depart="41.39" departLane="best" departSpeed="max" from="-25495421#3" id="veh25" to="26406771" type="veh_petrol"/>
 <trip depart="43.04" departLane="best" departSpeed="max" from="-25495037#11" id="veh26" to="-846982040#3" type="veh_ev"/>
 <trip depart="44.70" departLane="best" from="852535085#4" id="veh27" to="25584703" type="veh_ev"/>
 <trip depart="46.35" departLane="best" departSpeed="max" from="198569570" id="veh28" to="25584905" type="veh_ev"/>
 <trip depart="49.66" departLane="best" departSpeed="max" from="-25584902" id="veh30" to="-150201718" type="veh_petrol"/>
 <trip depart="51.32" departLane="best" departSpeed="max" from="-329741491#1" id="veh31" to="-43654884#2" type="veh_ev"/>
 <trip depart="52.97" departLane="best" departSpeed="max" from="-25584745#9" id="veh32" to="681265637#0" type="veh_ev"/>
 <trip depart="54.63" departLane="best" from="48876348#1" id="veh33" to="-48304698#7" type="veh_petrol"/>
 <trip depart="56.28" departLane="best" departSpeed="max" from="25584823#0" id="veh34" to="1002325035#1" type="veh_ev"/>
 <trip depart="57.94" departLane="best" from="497430176#3" id="veh35" to="155815605#4" type="veh_petrol"/>
 <trip depart="59.60" departLane="best" departSpeed="max" from="-25927423#1" id="veh36" to="-34776540" type="veh_petrol"/>
 <trip depart="61.25" departLane="best" departSpeed="max" from="198659941" id="veh37" to="-38547261#0" type="veh_petrol"/>
 <trip depart="62.91" departLane="best" from="206256031" id="veh38" to="497430176#0" type="veh_petrol"/>
 <trip depart="64.56" departLane="best" from="904443331#0" id="veh39" to="198889399#0" type="veh_petrol"/>
 <trip depart="66.22" departLane="best" departSpeed="max" from="-198889412#2" id="veh40" to="-171328770#3" type="veh_petrol"/>
 <trip depart="67.87" departLane="best" from="-211652919#2" id="veh41" to="25495460#1" type="veh_ev"/>
 <trip depart="69.53" departLane="best" departSpeed="max" from="38461038" id="veh42" to="119141682" type="veh_petrol"/>
 <trip depart="71.18" departLane="best" departSpeed="max" from="-198569571" id="veh43" to="-852535085#2" type="veh_ev"/>
 <trip depart="74.49" departLane="best" from="749511891#2" id="veh45" to="48307181#17" type="veh_ev"/>
 <trip depart="76.15" departLane="best" from="-11122804#6" id="veh46" to="26165941" type="veh_ev"/>
 <trip depart="77.81" departLane="best" departSpeed="max" from="263374751#0" id="veh47" to="206256031-AddedOffRampEdge" type="veh_petrol"/>
 <trip depart="79.46" departLane="best" departSpeed="max" from="-25927423#1" id="veh48" to="25584703" type="veh_ev"/>
 <trip depart="81.12" departLane="best" from="-22983427#5" id="veh49" to="125192016" type="veh_ev"/>
 <trip depart="82.77" departLane="best" departSpeed="max" from="-750596649" id="veh50" to="689303711#0" type="veh_ev"/>
 <trip depart="84.43" departLane="best" from="48876348#0" id="veh51" to="-38547261#1" type="veh_ev"/>
 <trip depart="86.08" departLane="best" departSpeed="max" from="119199916" id="veh52" to="-26492401#2" type="veh_ev"/>
 <trip depart="87.74" departLane="best" from="497430173#0" id="veh53" to="48876193#2" type="veh_petrol"/>
 <trip depart="89.39" departLane="best" departSpeed="max" from="-30101887#10" id="veh54" to="25584703" type="veh_ev"/>
 <trip depart="91.05" departLane="best" from="24931534#2" id="veh55" to="-25588185#1" type="veh_ev"/>
 <trip depart="92.70" departLane="best" departSpeed="max" from="34776443" id="veh56" to="211649889#12" type="veh_ev"/>
 <trip depart="96.02" departLane="best" departSpeed="max" from="-1002325035#1" id="veh58" to="-48876190#1" type="veh_petrol"/>
 <trip depart="97.67" departLane="best" from="-11551215#0" id="veh59" to="59517050#0" type="veh_petrol"/>
 <trip depart="99.33" departLane="best" from="48877137" id="veh60" to="43655376#4" type="veh_ev"/>
 <trip depart="100.98" departLane="best" from="-3100845#1" id="veh61" to="-198659943#0" type="veh_ev"/>
 <trip depart="102.64" departLane="best" from="48877137" id="veh62" to="682263351#6" type="veh_petrol"/>
 <trip depart="104.29" departLane="best" departSpeed="max" from="-198889402#2" id="veh63" to="198569569#7" type="veh_petrol"/>
 <trip depart="105.95" departLane="best" departSpeed="max" from="-198659943#1" id="veh64" to="3100845#2" type="veh_petrol"/>
 <trip depart="107.60" departLane="best" departSpeed="max" from="34776496" id="veh65" to="-25584699#3" type="veh_ev"/>
 <trip depart="109.26" departLane="best" departSpeed="max" from="1002325035#0" id="veh66" to="22983452#1" type="veh_petrol"/>
 <trip depart="110.91" departLane="best" departSpeed="max" from="-25927423#1" id="veh67" to="48876195#3" type="veh_petrol"/>
 <trip depart="112.57" departLane="best" departSpeed="max" from="-540388562#1" id="veh68" to="-30116390#13" type="veh_ev"/>
 <trip depart="114.22" departLane="best" from="155815605#3" id="veh69" to="26406771" type="veh_petrol"/>
 <trip depart="115.88" departLane="best" from="-25584710#2" id="veh70" to="-48304698#0" type="veh_petrol"/>
 <trip depart="117.54" departLane="best" from="-682267093#1" id="veh71" to="198889412#0" type="veh_ev"/>
 <trip depart="119.19" departLane="best" departSpeed="max" from="-22983476#1" id="veh72" to="-32657406" type="veh_petrol"/>
 <trip depart="120.85" departLane="best" from="-358090699" id="veh73" to="25494569#0" type="veh_petrol"/>
 <trip depart="122.50" departLane="best" departSpeed="max" from="-25584903" id="veh74" to="-3101255#9" type="veh_ev"/>
 <trip depart="124.16" departLane="best" departSpeed="max" from="-198659944#1" id="veh75" to="25545027" type="veh_ev"/>
 <trip depart="125.81" departLane="best" departSpeed="max" from="-25584902" id="veh76" to="502458409#0" type="veh_petrol"/>
 <trip depart="127.47" departLane="best" departSpeed="max" from="48304700#0" id="veh77" to="-198889418#0" type="veh_petrol"/>
 <trip depart="129.12" departLane="best" departSpeed="max" from="-25584906" id="veh78" to="25584835" type="veh_petrol"/>
 <trip depart="130.78" departLane="best" from="-25584821#1" id="veh79" to="-25584737#1" type="veh_ev"/>
 <trip depart="132.43" departLane="best" from="-948470802" id="veh80" to="3498238#9" type="veh_ev"/>
 <trip depart="134.09" departLane="best" from="43654884#5" id="veh81" to="-26492447" type="veh_petrol"/>
 <trip depart="137.40" departLane="best" from="-547497842#0" id="veh83" to="156163477#5" type="veh_ev"/>
 <trip depart="139.06" departLane="best" from="30102409#6" id="veh84" to="25584898" type="veh_ev"/>
 <trip depart="140.71" departLane="best" departSpeed="max" from="800169394#0" id="veh85" to="-25010931#3" type="veh_petrol"/>
 <trip depart="142.37" departLane="best" from="-48964101#14" id="veh86" to="-497430176#4" type="veh_petrol"/>
 <trip depart="144.02" departLane="best" from="48307181#0" id="veh87" to="-3498234#9" type="veh_petrol"/>
 <trip depart="145.68" departLane="best" from="-25584699#4" id="veh88" to="147359137#17" type="veh_petrol"/>
 <trip depart="147.33" departLane="best" departSpeed="max" from="-540388562#1" id="veh89" to="-45105197#18" type="veh_petrol"/>
 <trip depart="148.99" departLane="best" from="-25676160#10" id="veh90" to="540388562#1" type="veh_ev"/>
 <trip depart="150.64" departLane="best" departSpeed="max" from="-688894351" id="veh91" to="48307181#17" type="veh_petrol"/>
 <trip depart="152.30" departLane="best" from="160127959#0" id="veh92" to="-198569569#12" type="veh_petrol"/>
 <trip depart="153.96" departLane="best" from="948470808" id="veh93" to="43655378#1" type="veh_petrol"/>
 <trip depart="155.61" departLane="best" from="749266346#8" id="veh94" to="552554204" type="veh_ev"/>
 <trip depart="157.27" departLane="best" departSpeed="max" from="48304695" id="veh95" to="-26406773" type="veh_ev"/>
 <trip depart="158.92" departLane="best" departSpeed="max" from="1093953637" id="veh96" to="-30116502#3" type="veh_ev"/>
 <trip depart="160.58" departLane="best" from="-48877140#1" id="veh97" to="-198659943#0" type="veh_ev"/>
 <trip depart="162.23" departLane="best" from="-48304683#3" id="veh98" to="753521070#0" type="veh_petrol"/>
 <trip depart="163.89" departLane="best" departSpeed="max" from="-25927423#1" id="veh99" to="3498238#2" type="veh_ev"/>
 <trip depart="165.54" departLane="best" departSpeed="max" from="-750596651" id="veh100" to="119141682" type="veh_petrol"/>
 <trip depart="167.20" departLane="best" from="682270693#2" id="veh101" to="852535085#8" type="veh_petrol"/>
 <trip depart="168.85" departLane="best" from="198569569#2" id="veh102" to="25927428#1" type="veh_ev"/>
 <trip depart="170.51" departLane="best" from="-25494939" id="veh103" to="-48304686" type="veh_petrol"/>
 <trip depart="172.16" departLane="best" from="749266346#8" id="veh104" to="25494400#2" type="veh_petrol"/>
 <trip depart="173.82" departLane="best" from="155815605#9" id="veh105" to="298173728#0" type="veh_ev"/>
 <trip depart="175.48" departLane="best" from="-171328770#1" id="veh106" to="25494474#0" type="veh_petrol"/>
 <trip depart="177.13" departLane="best" departSpeed="max" from="119781006#0" id="veh107" to="48304683#4" type="veh_petrol"/>
 <trip depart="178.79" departLane="best" departSpeed="max" from="-25494979" id="veh108" to="708283032#0" type="veh_petrol"/>
 <trip depart="180.44" departLane="best" departSpeed="max" from="-198725744#1" id="veh109" to="-26492443" type="veh_ev"/>
 <trip depart="182.10" departLane="best" departSpeed="max" from="215614884" id="veh110" to="25584898" type="veh_ev"/>
 <trip depart="183.75" departLane="best" departSpeed="max" from="-25584905" id="veh111" to="-25584689#0" type="veh_ev"/>
 <trip depart="185.41" departLane="best" departSpeed="max" from="48942315" id="veh112" to="-34776540" type="veh_petrol"/>
 <trip depart="187.06" departLane="best" from="211669375#0" id="veh113" to="25495421#0" type="veh_ev"/>
 <trip depart="188.72" departLane="best" departSpeed="max" from="133061555#0" id="veh114" to="662025855" type="veh_petrol"/>
 <trip depart="190.37" departLane="best" from="-25584737#1" id="veh115" to="25927423#1" type="veh_ev"/>
 <trip depart="192.03" departLane="best" departSpeed="max" from="-25584906" id="veh116" to="1002325035#1" type="veh_ev"/>
 <trip depart="193.69" departLane="best" from="25676096#2" id="veh117" to="-48304691#4" type="veh_petrol"/>
 <trip depart="195.34" departLane="best" from="-330970011#11" id="veh118" to="30101887#0" type="veh_ev"/>
 <trip depart="197.00" departLane="best" departSpeed="max" from="-198659944#1" id="veh119" to="155815605#3" type="veh_petrol"/>
 <trip depart="198.65" departLane="best" from="945507035" id="veh120" to="871906591" type="veh_ev"/>
 <trip depart="200.31" departLane="best" departSpeed="max" from="-198659945#1" id="veh121" to="-30116390#13" type="veh_ev"/>
 <trip depart="201.96" departLane="best" departSpeed="max" from="-25927423#1" id="veh122" to="645950728" type="veh_petrol"/>
 <trip depart="205.27" departLane="best" from="-45105197#18" id="veh124" to="-25927429" type="veh_ev"/>
 <trip depart="206.93" departLane="best" departSpeed="max" from="48182870#0" id="veh125" to="25740233#0" type="veh_ev"/>
 <trip depart="208.58" departLane="best" from="25010931#2" id="veh126" to="753603579#0" type="veh_petrol"/>
 <trip depart="210.24" departLane="best" from="25584821#5" id="veh127" to="-11122809" type="veh_petrol"/>
 <trip depart="211.90" departLane="best" from="4374464#0" id="veh128" to="-48304687" type="veh_ev"/>
 <trip depart="213.55" departLane="best" from="25584907#5" id="veh129" to="662025872" type="veh_ev"/>
 <trip depart="215.21" departLane="best" departSpeed="max" from="-25494440#1" id="veh130" to="-25495048#1" type="veh_ev"/>
 <trip depart="216.86" departLane="best" from="-211649889#13" id="veh131" to="22983454#2" type="veh_ev"/>
 <trip depart="218.52" departLane="best" departSpeed="max" from="-26406606" id="veh132" to="25494979" type="veh_ev"/>
 <trip depart="220.17" departLane="best" from="26492493" id="veh133" to="-273649456" type="veh_ev"/>
 <trip depart="221.83" departLane="best" departSpeed="max" from="25584689#0" id="veh134" to="-3993570#19" type="veh_petrol"/>
 <trip depart="223.48" departLane="best" from="1111851687#0" id="veh135" to="502458409#0" type="veh_ev"/>
 <trip depart="225.14" departLane="best" departSpeed="max" from="48304694" id="veh136" to="-22983452#15" type="veh_petrol"/>
 <trip depart="226.79" departLane="best" from="-547497842#0" id="veh137" to="-4374465#7" type="veh_ev"/>
 <trip depart="228.45" departLane="best" departSpeed="max" from="-1025820809" id="veh138" to="34626289#0" type="veh_petrol"/>
 <trip depart="230.11" departLane="best" from="25584689#1" id="veh139" to="-38547260#0" type="veh_petrol"/>
 <trip depart="231.76" departLane="best" from="3101255#3" id="veh140" to="22983454#2" type="veh_ev"/>
 <trip depart="233.42" departLane="best" departSpeed="max" from="-645950728" id="veh141" to="-11551218#16" type="veh_ev"/>
 <trip depart="235.07" departLane="best" departSpeed="max" from="-198659945#1" id="veh142" to="48942290" type="veh_ev"/>
 <trip depart="236.73" departLane="best" departSpeed="max" from="495284259" id="veh143" to="22983427#10" type="veh_petrol"/>
 <trip depart="238.38" departLane="best" departSpeed="max" from="48304683#0" id="veh144" to="25494440#1" type="veh_ev"/>
 <trip depart="240.04" departLane="best" departSpeed="max" from="-25494761#2" id="veh145" to="-25584699#1" type="veh_petrol"/>
 <trip depart="241.69" departLane="best" from="-3100845#4" id="veh146" to="497430176#3" type="veh_ev"/>
 <trip depart="243.35" departLane="best" departSpeed="max" from="38461038" id="veh147" to="48307181#17" type="veh_ev"/>
 <trip depart="245.00" departLane="best" from="48963785#0" id="veh148" to="-30104102#1" type="veh_ev"/>
 <trip depart="246.66" departLane="best" from="-25676160#10" id="veh149" to="-25494440#0" type="veh_ev"/>
 <trip depart="248.31" departLane="best" departSpeed="max" from="36706561" id="veh150" to="48942364" type="veh_ev"/>
 <trip depart="249.97" departLane="best" from="-497238810#3" id="veh151" to="25495421#0" type="veh_ev"/>
 <trip depart="251.63" departLane="best" from="-25494891#1" id="veh152" to="645950724#0" type="veh_petrol"/>
 <trip depart="253.28" departLane="best" from="48876189#1" id="veh153" to="750596651" type="veh_ev"/>
 <trip depart="254.94" departLane="best" from="43654886#2" id="veh154" to="48942289" type="veh_ev"/>
 <trip depart="256.59" departLane="best" from="-143884452#6" id="veh155" to="26632421#1" type="veh_petrol"/>
 <trip depart="258.25" departLane="best" from="-3498238#8" id="veh156" to="645950728" type="veh_petrol"/>
 <trip depart="259.90" departLane="best" from="407467990#0" id="veh157" to="4872517#4" type="veh_petrol"/>
 <trip depart="261.56" departLane="best" from="43654886#2" id="veh158" to="-43409517#0" type="veh_petrol"/>
 <trip depart="263.21" departLane="best" departSpeed="max" from="38461038" id="veh159" to="-25494569#4" type="veh_petrol"/>
 <trip depart="264.87" departLane="best" from="48876195#0" id="veh160" to="48307181#0" type="veh_ev"/>
 <trip depart="266.52" departLane="best" departSpeed="max" from="-25584879#5" id="veh161" to="40428199#0" type="veh_ev"/>
 <trip depart="268.18" departLane="best" from="-750596653#0" id="veh162" to="-48304695" type="veh_petrol"/>
 <trip depart="269.84" departLane="best" departSpeed="max" from="38461038" id="veh163" to="-32657409" type="veh_ev"/>
 <trip depart="271.49" departLane="best" departSpeed="max" from="-143882122#1" id="veh164" to="-26492449" type="veh_ev"/>
 <trip depart="273.15" departLane="best" from="-3498236#7" id="veh165" to="48876189#1" type="veh_petrol"/>
 <trip depart="274.80" departLane="best" from="749266346#0" id="veh166" to="-45105197#21" type="veh_ev"/>
 <trip depart="276.46" departLane="best" departSpeed="max" from="25584699#0" id="veh167" to="1025820809" type="veh_ev"/>
 <trip depart="278.11" departLane="best" departSpeed="max" from="785399543" id="veh168" to="206256031-AddedOffRampEdge" type="veh_petrol"/>
 <trip depart="279.77" departLane="best" from="59517050#0" id="veh169" to="-25495048#1" type="veh_ev"/>
 <trip depart="281.42" departLane="best" from="749511891#1" id="veh170" to="-26492401#2" type="veh_petrol"/>
 <trip depart="283.08" departLane="best" from="689303712#2" id="veh171" to="-40427526#5" type="veh_ev"/>
 <trip depart="284.73" departLane="best" from="-211649889#9" id="veh172" to="125192016" type="veh_petrol"/>
 <trip depart="286.39" departLane="best" from="30102409#0" id="veh173" to="-48304698#4" type="veh_petrol"/>
 <trip depart="288.05" departLane="best" from="23433402" id="veh174" to="198889402#0" type="veh_petrol"/>
 <trip depart="289.70" departLane="best" from="-48304698#7" id="veh175" to="25446124#0" type="veh_ev"/>
 <trip depart="291.36" departLane="best" departSpeed="max" from="-1002325035#1" id="veh176" to="547497842#1" type="veh_petrol"/>
 <trip depart="293.01" departLane="best" from="155815605#1" id="veh177" to="25927428#1" type="veh_ev"/>
 <trip depart="294.67" departLane="best" from="3101255#5" id="veh178" to="25584879#0" type="veh_ev"/>
 <trip depart="296.32" departLane="best" departSpeed="max" from="-43655377#2" id="veh179" to="-198889418#0" type="veh_ev"/>
 <trip depart="297.98" departLane="best" departSpeed="max" from="25588123#0" id="veh180" to="-48876348#3" type="veh_petrol"/>
 <trip depart="299.63" departLane="best" departSpeed="max" from="-329741491#1" id="veh181" to="48143411#1" type="veh_petrol"/>
 <trip depart="301.29" departLane="best" departSpeed="max" from="26492499" id="veh182" to="-48304694" type="veh_petrol"/>
 <trip depart="302.94" departLane="best" from="-3101254#4" id="veh183" to="1111851687#2" type="veh_petrol"/>
 <trip depart="304.60" departLane="best" from="-48964101#14" id="veh184" to="-48304686" type="veh_ev"/>
 <trip depart="306.25" departLane="best" departSpeed="max" from="-24931534#9" id="veh185" to="11551218#10" type="veh_ev"/>
 <trip depart="307.91" departLane="best" from="645950724#0" id="veh186" to="25584902" type="veh_petrol"/>
 <trip depart="309.57" departLane="best" departSpeed="max" from="495284259" id="veh187" to="25495094" type="veh_ev"/>
 <trip depart="311.22" departLane="best" departSpeed="max" from="-30102409#12" id="veh188" to="22983441#11" type="veh_petrol"/>
 <trip depart="312.88" departLane="best" departSpeed="max" from="-1002325035#1" id="veh189" to="-48143413#0" type="veh_petrol"/>
 <trip depart="314.53" departLane="best" departSpeed="max" from="-662025872" id="veh190" to="25494429#0" type="veh_petrol"/>
 <trip depart="316.19" departLane="best" from="25584821#6" id="veh191" to="156161864#0" type="veh_ev"/>
 <trip depart="317.84" departLane="best" departSpeed="max" from="-688894351" id="veh192" to="-30116502#3" type="veh_ev"/>
 <trip depart="319.50" departLane="best" from="-948470803" id="veh193" to="501712767#4" type="veh_ev"/>
 <trip depart="321.15" departLane="best" departSpeed="max" from="38461038" id="veh194" to="-26492391#1" type="veh_petrol"/>
 <trip depart="322.81" departLane="best" departSpeed="max" from="-198889402#2" id="veh195" to="198889409#0" type="veh_petrol"/>
 <trip depart="324.46" departLane="best" from="25495460#0" id="veh196" to="-490854578#7" type="veh_petrol"/>
 <trip depart="326.12" departLane="best" from="4374465#0" id="veh197" to="30101887#0" type="veh_petrol"/>
 <trip depart="327.78" departLane="best" from="25676160#0" id="veh198" to="-32657406" type="veh_ev"/>
 <trip depart="329.43" departLane="best" departSpeed="max" from="-25584706" id="veh199" to="-143882125#13" type="veh_ev"/>
 <trip depart="331.09" departLane="best" departSpeed="max" from="-25584907#7" id="veh200" to="160127959#0" type="veh_ev"/>
 <trip depart="332.74" departLane="best" departSpeed="max" from="48304696#0" id="veh201" to="-198889418#4" type="veh_petrol"/>
 <trip depart="334.40" departLane="best" departSpeed="max" from="-502413863" id="veh202" to="25545027" type="veh_ev"/>
 <trip depart="336.05" departLane="best" departSpeed="max" from="-25584704" id="veh203" to="25594782#0" type="veh_ev"/>
 <trip depart="337.71" departLane="best" from="115069538#0" id="veh204" to="-34776496" type="veh_petrol"/>
 <trip depart="339.36" departLane="best" departSpeed="max" from="25584823#0" id="veh205" to="-11122804#1" type="veh_ev"/>
 <trip depart="341.02" departLane="best" departSpeed="max" from="329359072#0" id="veh206" to="339889572#2" type="veh_ev"/>
 <trip depart="344.33" departLane="best" departSpeed="max" from="-25495432" id="veh208" to="689303712#6" type="veh_ev"/>
 <trip depart="345.99" departLane="best" departSpeed="max" from="133061553#0" id="veh209" to="-198569569#12" type="veh_ev"/>
 <trip depart="347.64" departLane="best" from="-25676134#9" id="veh210" to="48143411#1" type="veh_ev"/>
 <trip depart="349.30" departLane="best" departSpeed="max" from="-750596651" id="veh211" to="38461036" type="veh_ev"/>
 <trip depart="352.61" departLane="best" departSpeed="max" from="215614884" id="veh213" to="682270693#3" type="veh_petrol"/>
 <trip depart="354.26" departLane="best" departSpeed="max" from="48942315" id="veh214" to="25495037#8" type="veh_ev"/>
 <trip depart="355.92" departLane="best" departSpeed="max" from="26492499" id="veh215" to="198725744#0" type="veh_ev"/>
 <trip depart="357.57" departLane="best" departSpeed="max" from="48143413#0" id="veh216" to="22983441#11" type="veh_petrol"/>
 <trip depart="359.23" departLane="best" from="48942364" id="veh217" to="289065183" type="veh_ev"/>
 <trip depart="360.88" departLane="best" departSpeed="max" from="1002325035#0" id="veh218" to="-374739431" type="veh_ev"/>
 <trip depart="362.54" departLane="best" from="-25588134" id="veh219" to="25584699#2" type="veh_petrol"/>
 <trip depart="364.20" departLane="best" departSpeed="max" from="34776496" id="veh220" to="198889423#0" type="veh_petrol"/>
 <trip depart="365.85" departLane="best" from="25494877#0" id="veh221" to="-4374464#2" type="veh_ev"/>
 <trip depart="367.51" departLane="best" departSpeed="max" from="-198725743" id="veh222" to="-48143413#0" type="veh_ev"/>
 <trip depart="369.16" departLane="best" from="-26165940#3" id="veh223" to="-48307181#4" type="veh_petrol"/>
 <trip depart="370.82" departLane="best" from="155815605#5" id="veh224" to="-25584821#4" type="veh_petrol"/>
 <trip depart="372.47" departLane="best" departSpeed="max" from="26492445" id="veh225" to="-198659946#1" type="veh_petrol"/>
 <trip depart="374.13" departLane="best" from="-497238812" id="veh226" to="211652919#1" type="veh_ev"/>
 <trip depart="375.78" departLane="best" from="-5060471#4" id="veh227" to="-30102409#10" type="veh_ev"/>
 <trip depart="377.44" departLane="best" departSpeed="max" from="-540388541" id="veh228" to="502458409#0" type="veh_ev"/>
 <trip depart="379.09" departLane="best" from="206256031" id="veh229" to="25588134" type="veh_petrol"/>
 <trip depart="380.75" departLane="best" departSpeed="max" from="48304698#0" id="veh230" to="3101255#5" type="veh_ev"/>
 <trip depart="382.40" departLane="best" from="-40427526#5" id="veh231" to="30102409#11" type="veh_petrol"/>
 <trip depart="384.06" departLane="best" departSpeed="max" from="48304697#0" id="veh232" to="689303711#0" type="veh_ev"/>
 <trip depart="385.72" departLane="best" departSpeed="max" from="-540388541" id="veh233" to="296895408#0" type="veh_petrol"/>
 <trip depart="387.37" departLane="best" from="156161864#0" id="veh234" to="25494939" type="veh_petrol"/>
 <trip depart="389.03" departLane="best" departSpeed="max" from="-25584835" id="veh235" to="-3101255#3" type="veh_petrol"/>
 <trip depart="390.68" departLane="best" from="-681265641#4" id="veh236" to="-147359137#13" type="veh_petrol"/>
 <trip depart="392.34" departLane="best" departSpeed="max" from="-357671764#1" id="veh237" to="25584903" type="veh_petrol"/>
 <trip depart="393.99" departLane="best" from="-852535085#2" id="veh238" to="-25584699#2" type="veh_ev"/>
 <trip depart="395.65" departLane="best" from="25494569#0" id="veh239" to="-143884452#4" type="veh_ev"/>
 <trip depart="397.30" departLane="best" from="-48876189#9" id="veh240" to="23433403" type="veh_petrol"/>
 <trip depart="398.96" departLane="best" from="-147359137#16" id="veh241" to="25584704" type="veh_ev"/>
 <trip depart="400.61" departLane="best" departSpeed="max" from="-156709771#2" id="veh242" to="-846982040#3" type="veh_ev"/>
 <trip depart="402.27" departLane="best" departSpeed="max" from="-25584745#9" id="veh243" to="-48876193#4" type="veh_petrol"/>
 <trip depart="403.93" departLane="best" departSpeed="max" from="34776418" id="veh244" to="-846982040#3" type="veh_ev"/>
 <trip depart="405.58" departLane="best" departSpeed="max" from="-25740225#1" id="veh245" to="-211649889#4" type="veh_ev"/>
 <trip depart="407.24" departLane="best" from="-11551215#0" id="veh246" to="211649889#12" type="veh_petrol"/>
 <trip depart="408.89" departLane="best" from="948481251" id="veh247" to="-645950724#0" type="veh_petrol"/>
 <trip depart="410.55" departLane="best" from="25584740#3" id="veh248" to="3498236#0" type="veh_ev"/>
 <trip depart="412.20" departLane="best" from="25584821#0" id="veh249" to="30102409#11" type="veh_ev"/>
 <trip depart="413.86" departLane="best" from="681265641#4" id="veh250" to="-26492493" type="veh_petrol"/>
 <trip depart="415.51" departLane="best" from="-11551218#9" id="veh251" to="-25588185#1" type="veh_ev"/>