<?xml version="1.0" encoding="UTF-8"?>

<!-- generated on 2022-11-11 10:00:37.164112 by osmWebWizard.py UNKNOWN
<configuration>
    <allow-fringe.min-length value="1000.0"/>
    <end value="3600"/>
    <fringe-factor value="5.0"/>
    <fringe-start-attributes value="departSpeed=&quot;max&quot;"/>
    <lanes value="True"/>
    <min-distance value="300.0"/>
    <net-file value="/Users/hjalte/2022-11-11-10-00-00/osm.net.xml"/>
    <period value="0.5760132197337985"/>
    <route-file value="/Users/hjalte/2022-11-11-10-00-00/osm.passenger.rou.xml"/>
    <trip-attributes value="departLane=&quot;best&quot;"/>
    <output-trip-file value="/Users/hjalte/2022-11-11-10-00-00/osm.passenger.trips.xml"/>
    <prefix value="veh"/>
    <validate value="True"/>
    <vehicle-class value="passenger"/>
</configuration>
-->

<!-- generated on 2022-11-11 10:00:35 by Eclipse SUMO duarouter Version 1.14.1
<configuration xmlns:xsi="http://www.w3.org/2001/XMLSchema-instance" xsi:noNamespaceSchemaLocation="http://sumo.dlr.de/xsd/duarouterConfiguration.xsd">

    <input>
        <net-file value="/Users/hjalte/2022-11-11-10-00-00/osm.net.xml"/>
        <route-files value="/Users/hjalte/2022-11-11-10-00-00/osm.passenger.trips.xml"/>
    </input>

    <output>
        <output-file value="/Users/hjalte/2022-11-11-10-00-00/osm.passenger.trips.xml.tmp"/>
        <alternatives-output value="NUL"/>
        <write-trips value="true"/>
    </output>

    <time>
        <begin value="0"/>
        <end value="3600"/>
    </time>

    <report>
        <no-warnings value="true"/>
        <ignore-errors value="true"/>
        <no-step-log value="true"/>
    </report>

</configuration>
-->

<routes xmlns:xsi="http://www.w3.org/2001/XMLSchema-instance" xsi:noNamespaceSchemaLocation="http://sumo.dlr.de/xsd/routes_file.xsd">
    <vType id="veh_passenger" vClass="passenger"/>
    <trip id="veh0" type="veh_passenger" depart="0.00" departLane="best" from="496989957#0" to="-227064538#4"/>
    <trip id="veh1" type="veh_passenger" depart="0.58" departLane="best" from="221607366#0" to="157019562#3"/>
    <trip id="veh2" type="veh_passenger" depart="1.15" departLane="best" from="5672110#0" to="5669882#3"/>
    <trip id="veh3" type="veh_passenger" depart="1.73" departLane="best" from="825875767#0" to="-5672550#2"/>
    <trip id="veh4" type="veh_passenger" depart="2.30" departLane="best" from="420598232#0" to="-250267912#1"/>
    <trip id="veh5" type="veh_passenger" depart="2.88" departLane="best" from="124814435#0" to="451934642#0"/>
    <trip id="veh6" type="veh_passenger" depart="3.46" departLane="best" from="-239626770#2" to="1098561545"/>
    <trip id="veh7" type="veh_passenger" depart="4.03" departLane="best" from="518888236" to="46160406#0"/>
    <trip id="veh8" type="veh_passenger" depart="4.61" departLane="best" from="125527383" to="46816996#13"/>
    <trip id="veh9" type="veh_passenger" depart="5.18" departLane="best" from="5682012#2" to="-1081824061#2"/>
    <trip id="veh10" type="veh_passenger" depart="5.76" departLane="best" from="5681675#0" to="5670728#0"/>
    <trip id="veh12" type="veh_passenger" depart="6.91" departLane="best" from="958203289" to="280122809#0"/>
    <trip id="veh13" type="veh_passenger" depart="7.49" departLane="best" from="-5672986" to="-5679155#2"/>
    <trip id="veh14" type="veh_passenger" depart="8.06" departLane="best" from="68668553#0" to="46863514#2"/>
    <trip id="veh15" type="veh_passenger" depart="8.64" departLane="best" from="5681691#4" to="5672337#1"/>
    <trip id="veh16" type="veh_passenger" depart="9.22" departLane="best" from="46141627#0" to="968388395#0"/>
    <trip id="veh18" type="veh_passenger" depart="10.37" departLane="best" from="620939495#0" to="485803941#0"/>
    <trip id="veh19" type="veh_passenger" depart="10.94" departLane="best" from="767372817#0" to="46582968#0"/>
    <trip id="veh20" type="veh_passenger" depart="11.52" departLane="best" from="5670633#6" to="-420886410"/>
    <trip id="veh21" type="veh_passenger" depart="12.10" departLane="best" from="157012386#24" to="226193929#4"/>
    <trip id="veh22" type="veh_passenger" depart="12.67" departLane="best" departSpeed="max" from="-543897624#6" to="181375404#9"/>
    <trip id="veh23" type="veh_passenger" depart="13.25" departLane="best" from="-5681879#2" to="221687792#3"/>
    <trip id="veh24" type="veh_passenger" depart="13.82" departLane="best" from="496982371" to="39662325#0"/>
    <trip id="veh25" type="veh_passenger" depart="14.40" departLane="best" from="39419920#0" to="122625703-AddedOnRampEdge"/>
    <trip id="veh26" type="veh_passenger" depart="14.98" departLane="best" from="198924579#0" to="955261513#0"/>
    <trip id="veh27" type="veh_passenger" depart="15.55" departLane="best" from="516664206#0" to="479642035#0"/>
    <trip id="veh28" type="veh_passenger" depart="16.13" departLane="best" from="1038965623#6" to="5672321#0"/>
    <trip id="veh29" type="veh_passenger" depart="16.70" departLane="best" from="1032502936#0" to="412180553#0"/>
    <trip id="veh30" type="veh_passenger" depart="17.28" departLane="best" from="989387174-AddedOffRampEdge" to="516664210#0"/>
    <trip id="veh31" type="veh_passenger" depart="17.86" departLane="best" departSpeed="max" from="46201653" to="5670092#14"/>
    <trip id="veh32" type="veh_passenger" depart="18.43" departLane="best" from="683038598#0" to="5679746#0"/>
    <trip id="veh33" type="veh_passenger" depart="19.01" departLane="best" from="157019558#0" to="-25196678#1"/>
    <trip id="veh34" type="veh_passenger" depart="19.58" departLane="best" from="239629073#0" to="220464711#6"/>
    <trip id="veh36" type="veh_passenger" depart="20.74" departLane="best" from="808611038" to="25199883#0"/>
    <trip id="veh37" type="veh_passenger" depart="21.31" departLane="best" from="524394634#3" to="420351722#0"/>
    <trip id="veh38" type="veh_passenger" depart="21.89" departLane="best" from="847932330#4" to="421752003#0"/>
    <trip id="veh39" type="veh_passenger" depart="22.46" departLane="best" from="19725512#0" to="195743179#3"/>
    <trip id="veh40" type="veh_passenger" depart="23.04" departLane="best" from="46224855" to="198924634#6"/>
    <trip id="veh41" type="veh_passenger" depart="23.62" departLane="best" from="466956271#0" to="843553759#0"/>
    <trip id="veh42" type="veh_passenger" depart="24.19" departLane="best" from="414751576#4" to="154513049#3"/>
    <trip id="veh43" type="veh_passenger" depart="24.77" departLane="best" from="993797882" to="452339699#3"/>
    <trip id="veh44" type="veh_passenger" depart="25.34" departLane="best" departSpeed="max" from="-5672148#4" to="-421824309#2"/>
    <trip id="veh45" type="veh_passenger" depart="25.92" departLane="best" from="-630828599" to="496982627#0"/>
    <trip id="veh46" type="veh_passenger" depart="26.50" departLane="best" from="5679180#10" to="420809409#0"/>
    <trip id="veh47" type="veh_passenger" depart="27.07" departLane="best" departSpeed="max" from="-46350695#2" to="413045202#0"/>
    <trip id="veh48" type="veh_passenger" depart="27.65" departLane="best" from="993797879#0" to="46139039#9"/>
    <trip id="veh49" type="veh_passenger" depart="28.22" departLane="best" from="964236440" to="799813242#2"/>
    <trip id="veh50" type="veh_passenger" depart="28.80" departLane="best" from="-194923764#7" to="5671663#4"/>
    <trip id="veh51" type="veh_passenger" depart="29.38" departLane="best" from="5669639#0" to="46154285#2"/>
    <trip id="veh52" type="veh_passenger" depart="29.95" departLane="best" from="198924568#9" to="521358279"/>
    <trip id="veh54" type="veh_passenger" depart="31.10" departLane="best" from="420886402#0" to="959024723"/>
    <trip id="veh55" type="veh_passenger" depart="31.68" departLane="best" from="808611026-AddedOffRampEdge" to="198924660#6"/>
    <trip id="veh56" type="veh_passenger" depart="32.26" departLane="best" from="439933947#0" to="1053554760#0"/>
    <trip id="veh57" type="veh_passenger" depart="32.83" departLane="best" from="847921886#0" to="808611038"/>
    <trip id="veh58" type="veh_passenger" depart="33.41" departLane="best" departSpeed="max" from="227074775#0" to="516664206#0"/>
    <trip id="veh60" type="veh_passenger" depart="34.56" departLane="best" departSpeed="max" from="5674421" to="46154327#5"/>
    <trip id="veh61" type="veh_passenger" depart="35.14" departLane="best" from="5678173#0" to="46139041#0"/>
    <trip id="veh62" type="veh_passenger" depart="35.71" departLane="best" from="-1007837780#2" to="256902829#0"/>
    <trip id="veh63" type="veh_passenger" depart="36.29" departLane="best" from="-221607739" to="947916172#0"/>
    <trip id="veh64" type="veh_passenger" depart="36.86" departLane="best" from="812936280#15" to="671201389#0"/>
    <trip id="veh66" type="veh_passenger" depart="38.02" departLane="best" departSpeed="max" from="808611047" to="957524735"/>
    <trip id="veh67" type="veh_passenger" depart="38.59" departLane="best" from="-5670205#1" to="438367286#0"/>
    <trip id="veh68" type="veh_passenger" depart="39.17" departLane="best" from="-480682392#5" to="5677576#4"/>
    <trip id="veh69" type="veh_passenger" depart="39.74" departLane="best" from="5676656#12" to="-956944192#1"/>
    <trip id="veh70" type="veh_passenger" depart="40.32" departLane="best" from="421832644#4" to="46171879#0"/>
    <trip id="veh71" type="veh_passenger" depart="40.90" departLane="best" from="19725512#0" to="812936280#4"/>
    <trip id="veh72" type="veh_passenger" depart="41.47" departLane="best" departSpeed="max" from="420598286#0" to="124814435#3"/>
    <trip id="veh73" type="veh_passenger" depart="42.05" departLane="best" departSpeed="max" from="46141632#0" to="5672337#1-AddedOnRampEdge"/>
    <trip id="veh74" type="veh_passenger" depart="42.62" departLane="best" from="1087974358" to="25166922#0"/>
    <trip id="veh75" type="veh_passenger" depart="43.20" departLane="best" from="993797873#0" to="525658419#0"/>
    <trip id="veh78" type="veh_passenger" depart="44.93" departLane="best" departSpeed="max" from="275389118#0" to="46816995#14"/>
    <trip id="veh79" type="veh_passenger" depart="45.51" departLane="best" from="157019562#3" to="157012386#15"/>
    <trip id="veh80" type="veh_passenger" depart="46.08" departLane="best" from="-485056263#1" to="496990216#0"/>
    <trip id="veh81" type="veh_passenger" depart="46.66" departLane="best" from="157019558#0" to="847909746#0"/>
    <trip id="veh82" type="veh_passenger" depart="47.23" departLane="best" from="739591695#0" to="-496978219#2"/>
    <trip id="veh83" type="veh_passenger" depart="47.81" departLane="best" from="177127292#1" to="5668999#0"/>
    <trip id="veh84" type="veh_passenger" depart="48.39" departLane="best" departSpeed="max" from="122625698" to="-993797875#2"/>
    <trip id="veh85" type="veh_passenger" depart="48.96" departLane="best" departSpeed="max" from="95181768#0" to="464169428#3"/>
    <trip id="veh86" type="veh_passenger" depart="49.54" departLane="best" from="421830413" to="5680902#12"/>
    <trip id="veh87" type="veh_passenger" depart="50.11" departLane="best" departSpeed="max" from="5681879#0" to="1080978585#1"/>
    <trip id="veh88" type="veh_passenger" depart="50.69" departLane="best" from="-5680319#2" to="420809420#9"/>
    <trip id="veh89" type="veh_passenger" depart="51.27" departLane="best" departSpeed="max" from="420598286#0" to="421830413"/>
    <trip id="veh90" type="veh_passenger" depart="51.84" departLane="best" from="5671608#6" to="5669639#3"/>
    <trip id="veh91" type="veh_passenger" depart="52.42" departLane="best" from="980927703#2" to="-5680902#18"/>
    <trip id="veh92" type="veh_passenger" depart="52.99" departLane="best" from="420351721#0" to="311764602#1"/>
    <trip id="veh93" type="veh_passenger" depart="53.57" departLane="best" from="767372817#0" to="195743225#0"/>
    <trip id="veh94" type="veh_passenger" depart="54.15" departLane="best" from="1069964195" to="420884521#3"/>
    <trip id="veh95" type="veh_passenger" depart="54.72" departLane="best" from="420598232#0" to="221687795"/>
    <trip id="veh97" type="veh_passenger" depart="55.87" departLane="best" from="420809440#0" to="799819816#0"/>
    <trip id="veh98" type="veh_passenger" depart="56.45" departLane="best" from="46166212#0" to="-438901427#3"/>
    <trip id="veh99" type="veh_passenger" depart="57.03" departLane="best" from="997125811#0" to="68325083#0"/>
    <trip id="veh100" type="veh_passenger" depart="57.60" departLane="best" departSpeed="max" from="963576916" to="944692442#0"/>
    <trip id="veh101" type="veh_passenger" depart="58.18" departLane="best" from="438362423#0" to="125528659#0"/>
    <trip id="veh102" type="veh_passenger" depart="58.75" departLane="best" from="420351718#0" to="-46160404#3"/>
    <trip id="veh103" type="veh_passenger" depart="59.33" departLane="best" from="40337615" to="981500816#0"/>
    <trip id="veh104" type="veh_passenger" depart="59.91" departLane="best" from="19725512#0" to="5680862#3"/>
    <trip id="veh105" type="veh_passenger" depart="60.48" departLane="best" departSpeed="max" from="420886412" to="420809412"/>
    <trip id="veh106" type="veh_passenger" depart="61.06" departLane="best" from="958203289" to="993797879#0"/>
    <trip id="veh107" type="veh_passenger" depart="61.63" departLane="best" departSpeed="max" from="46201653" to="5671608#0"/>
    <trip id="veh108" type="veh_passenger" depart="62.21" departLane="best" from="1022549186#0" to="22927462#3"/>
    <trip id="veh109" type="veh_passenger" depart="62.79" departLane="best" departSpeed="max" from="963576916" to="46610726#3"/>
    <trip id="veh110" type="veh_passenger" depart="63.36" departLane="best" from="46154296#8" to="5673342#0"/>
    <trip id="veh112" type="veh_passenger" depart="64.51" departLane="best" from="440633423#0" to="765149015#0"/>
    <trip id="veh114" type="veh_passenger" depart="65.67" departLane="best" departSpeed="max" from="-543897624#6" to="1080319439#0"/>
    <trip id="veh115" type="veh_passenger" depart="66.24" departLane="best" departSpeed="max" from="46817180#0" to="5669857#0"/>
    <trip id="veh116" type="veh_passenger" depart="66.82" departLane="best" from="165775306#0" to="-826003969#0"/>
    <trip id="veh117" type="veh_passenger" depart="67.39" departLane="best" departSpeed="max" from="825868573" to="195743179#1"/>
    <trip id="veh118" type="veh_passenger" depart="67.97" departLane="best" from="46817000#0" to="488272734#0"/>
    <trip id="veh119" type="veh_passenger" depart="68.55" departLane="best" from="420530113#0" to="466956276#0"/>
    <trip id="veh120" type="veh_passenger" depart="69.12" departLane="best" from="46116332#0" to="955261511#0"/>
    <trip id="veh121" type="veh_passenger" depart="69.70" departLane="best" from="1091757189#0" to="5671458#0"/>
    <trip id="veh122" type="veh_passenger" depart="70.27" departLane="best" from="177127305#1" to="420351722#0"/>
    <trip id="veh124" type="veh_passenger" depart="71.43" departLane="best" from="239629076#0" to="5674191"/>
    <trip id="veh125" type="veh_passenger" depart="72.00" departLane="best" from="-496990645" to="421746241#6"/>
    <trip id="veh126" type="veh_passenger" depart="72.58" departLane="best" from="993797888#0" to="993797880#0"/>
    <trip id="veh127" type="veh_passenger" depart="73.15" departLane="best" from="-524355736" to="125525171#0"/>
    <trip id="veh128" type="veh_passenger" depart="73.73" departLane="best" from="19725512#0" to="955134530#3"/>
    <trip id="veh129" type="veh_passenger" depart="74.31" departLane="best" from="812965805#0" to="813956617#12"/>
    <trip id="veh130" type="veh_passenger" depart="74.88" departLane="best" departSpeed="max" from="39015290#0" to="1032459844#0"/>
    <trip id="veh131" type="veh_passenger" depart="75.46" departLane="best" from="654560919#0" to="5670932#0"/>
    <trip id="veh132" type="veh_passenger" depart="76.03" departLane="best" from="46863448#3" to="986807784#0"/>
    <trip id="veh133" type="veh_passenger" depart="76.61" departLane="best" from="524387551#6" to="-1087974375#1"/>
    <trip id="veh134" type="veh_passenger" depart="77.19" departLane="best" from="586350564#0" to="22927873#0"/>
    <trip id="veh135" type="veh_passenger" depart="77.76" departLane="best" from="536917120#0" to="955261517#0"/>
    <trip id="veh136" type="veh_passenger" depart="78.34" departLane="best" from="-978675658#6" to="-813024048#1"/>
    <trip id="veh137" type="veh_passenger" depart="78.91" departLane="best" departSpeed="max" from="-587355778#9" to="46179211#1"/>
    <trip id="veh138" type="veh_passenger" depart="79.49" departLane="best" from="220464708#0" to="46863522#0"/>
    <trip id="veh139" type="veh_passenger" depart="80.07" departLane="best" from="5671202#0-AddedOffRampEdge" to="111826111#6"/>
    <trip id="veh140" type="veh_passenger" depart="80.64" departLane="best" from="496980200#6" to="198924661#15"/>
    <trip id="veh141" type="veh_passenger" depart="81.22" departLane="best" from="438367286#0" to="847873803#0"/>
    <trip id="veh142" type="veh_passenger" depart="81.79" departLane="best" from="68668516#0" to="-5677229#2"/>
    <trip id="veh143" type="veh_passenger" depart="82.37" departLane="best" departSpeed="max" from="420598286#0" to="221686901#3"/>
    <trip id="veh145" type="veh_passenger" depart="83.52" departLane="best" from="496982787#0" to="198924605#2"/>
    <trip id="veh146" type="veh_passenger" depart="84.10" departLane="best" from="5672377#0" to="46171889#3"/>
    <trip id="veh147" type="veh_passenger" depart="84.67" departLane="best" from="420629940#0" to="-154513049#0"/>
    <trip id="veh148" type="veh_passenger" depart="85.25" departLane="best" from="-525656847#2" to="818255303#0"/>
    <trip id="veh149" type="veh_passenger" depart="85.83" departLane="best" departSpeed="max" from="845359325#0" to="46165812#0"/>
    <trip id="veh150" type="veh_passenger" depart="86.40" departLane="best" from="654560919#3" to="466956271#0"/>
    <trip id="veh151" type="veh_passenger" depart="86.98" departLane="best" from="1021949723#0" to="-945523294#2"/>
    <trip id="veh152" type="veh_passenger" depart="87.55" departLane="best" from="22927903" to="845359325#6"/>
    <trip id="veh153" type="veh_passenger" depart="88.13" departLane="best" from="5680142#5" to="799813242#2"/>
    <trip id="veh154" type="veh_passenger" depart="88.71" departLane="best" from="837515831#0" to="122660450-AddedOffRampEdge"/>
    <trip id="veh155" type="veh_passenger" depart="89.28" departLane="best" from="194923810#0" to="-5682085#1"/>
    <trip id="veh156" type="veh_passenger" depart="89.86" departLane="best" from="5678461#0" to="825365735#0"/>
    <trip id="veh157" type="veh_passenger" depart="90.43" departLane="best" from="420352246#0" to="494221658#0"/>
    <trip id="veh158" type="veh_passenger" depart="91.01" departLane="best" from="1022549185#3" to="95181773#2"/>
    <trip id="veh159" type="veh_passenger" depart="91.59" departLane="best" from="797654746" to="968737543#0"/>
    <trip id="veh160" type="veh_passenger" depart="92.16" departLane="best" departSpeed="max" from="5682085#0" to="814840327"/>
    <trip id="veh161" type="veh_passenger" depart="92.74" departLane="best" from="-23168580#1" to="5672715#0"/>
    <trip id="veh162" type="veh_passenger" depart="93.31" departLane="best" from="256902829#0" to="954496239#0"/>
    <trip id="veh163" type="veh_passenger" depart="93.89" departLane="best" departSpeed="max" from="5680990#0" to="804521766#0"/>
    <trip id="veh164" type="veh_passenger" depart="94.47" departLane="best" departSpeed="max" from="5682085#0" to="220464711#0"/>
    <trip id="veh166" type="veh_passenger" depart="95.62" departLane="best" from="805465679#27" to="799407328#14"/>
    <trip id="veh167" type="veh_passenger" depart="96.19" departLane="best" from="128817017#3" to="612740333#1"/>
    <trip id="veh168" type="veh_passenger" depart="96.77" departLane="best" from="420890092" to="239623562#0"/>
    <trip id="veh169" type="veh_passenger" depart="97.35" departLane="best" departSpeed="max" from="5680142#0" to="165775306#0"/>
    <trip id="veh171" type="veh_passenger" depart="98.50" departLane="best" from="25564005" to="805465679#0"/>
    <trip id="veh172" type="veh_passenger" depart="99.07" departLane="best" from="963576906#0" to="221689135#0"/>
    <trip id="veh173" type="veh_passenger" depart="99.65" departLane="best" from="497002544#0" to="420352247#0"/>
    <trip id="veh174" type="veh_passenger" depart="100.23" departLane="best" from="978439270#0" to="46154285#0"/>
    <trip id="veh175" type="veh_passenger" depart="100.80" departLane="best" from="955134530#0" to="-813024048#1"/>
    <trip id="veh176" type="veh_passenger" depart="101.38" departLane="best" from="964220270#0" to="1053554760#0"/>
    <trip id="veh177" type="veh_passenger" depart="101.95" departLane="best" from="962602326#0" to="199927850#0"/>
    <trip id="veh179" type="veh_passenger" depart="103.11" departLane="best" from="5671608#3" to="25198317#0"/>
    <trip id="veh180" type="veh_passenger" depart="103.68" departLane="best" departSpeed="max" from="46835359" to="455501322#0"/>
    <trip id="veh181" type="veh_passenger" depart="104.26" departLane="best" from="412115641#4" to="464964299#0"/>
    <trip id="veh182" type="veh_passenger" depart="104.83" departLane="best" from="195743225#0" to="5671202#0-AddedOffRampEdge"/>
    <trip id="veh183" type="veh_passenger" depart="105.41" departLane="best" from="-1015679931" to="944283073#0"/>
    <trip id="veh184" type="veh_passenger" depart="105.99" departLane="best" departSpeed="max" from="46141632#0" to="5671608#6"/>
    <trip id="veh185" type="veh_passenger" depart="106.56" departLane="best" from="5672377#3" to="5669304#1"/>
    <trip id="veh186" type="veh_passenger" depart="107.14" departLane="best" from="38605246#0" to="-485056263#1"/>
    <trip id="veh187" type="veh_passenger" depart="107.71" departLane="best" from="539024460#0" to="273326378#0"/>
    <trip id="veh188" type="veh_passenger" depart="108.29" departLane="best" from="232270204" to="729972920#2"/>
    <trip id="veh191" type="veh_passenger" depart="110.02" departLane="best" from="420351721#0" to="22927399#0"/>
    <trip id="veh192" type="veh_passenger" depart="110.59" departLane="best" departSpeed="max" from="-875360680#1" to="420629984#0"/>
    <trip id="veh193" type="veh_passenger" depart="111.17" departLane="best" from="955237974#0" to="5669892#10"/>
    <trip id="veh194" type="veh_passenger" depart="111.75" departLane="best" from="843553760#0" to="483707770#0"/>
    <trip id="veh195" type="veh_passenger" depart="112.32" departLane="best" from="22898269#0" to="46165821#0"/>
    <trip id="veh196" type="veh_passenger" depart="112.90" departLane="best" from="-1007837779#2" to="222299277#0"/>
    <trip id="veh197" type="veh_passenger" depart="113.47" departLane="best" from="420629965#0" to="46613913"/>
    <trip id="veh199" type="veh_passenger" depart="114.63" departLane="best" from="420809439" to="125528659#0"/>
    <trip id="veh200" type="veh_passenger" depart="115.20" departLane="best" from="421830414" to="845781114#4"/>
    <trip id="veh201" type="veh_passenger" depart="115.78" departLane="best" from="5680142#2" to="1041056524"/>
    <trip id="veh202" type="veh_passenger" depart="116.35" departLane="best" departSpeed="max" from="-5670010#1" to="460624365#0"/>
    <trip id="veh203" type="veh_passenger" depart="116.93" departLane="best" from="496980200#19" to="278135785#2"/>
    <trip id="veh204" type="veh_passenger" depart="117.51" departLane="best" from="587038051#0" to="5673867"/>
    <trip id="veh205" type="veh_passenger" depart="118.08" departLane="best" departSpeed="max" from="559907542#0" to="157019576"/>
    <trip id="veh206" type="veh_passenger" depart="118.66" departLane="best" from="1084940049#0" to="-226193929#7"/>
    <trip id="veh207" type="veh_passenger" depart="119.23" departLane="best" from="194923759#0" to="433124968#10"/>
    <trip id="veh208" type="veh_passenger" depart="119.81" departLane="best" from="68674966" to="-524610937#1"/>
    <trip id="veh209" type="veh_passenger" depart="120.39" departLane="best" from="420358887#0" to="496986997#0"/>
    <trip id="veh210" type="veh_passenger" depart="120.96" departLane="best" from="1080978582#0" to="5670633#9"/>
    <trip id="veh211" type="veh_passenger" depart="121.54" departLane="best" from="439842761#0" to="194923810#3"/>
    <trip id="veh212" type="veh_passenger" depart="122.11" departLane="best" from="524395517#0" to="-1080978586#2"/>
    <trip id="veh213" type="veh_passenger" depart="122.69" departLane="best" from="5672922#0" to="5678940#12"/>
    <trip id="veh214" type="veh_passenger" depart="123.27" departLane="best" departSpeed="max" from="-587355778#9" to="420809419#5"/>
    <trip id="veh215" type="veh_passenger" depart="123.84" departLane="best" from="1049854215#0" to="962602326#0"/>
    <trip id="veh216" type="veh_passenger" depart="124.42" departLane="best" from="460581660#0" to="-438901171#1"/>
    <trip id="veh217" type="veh_passenger" depart="124.99" departLane="best" from="194923810#0" to="729972924#0"/>
    <trip id="veh218" type="veh_passenger" depart="125.57" departLane="best" from="420888144#0" to="587038051#0"/>
    <trip id="veh219" type="veh_passenger" depart="126.15" departLane="best" from="541346246#2" to="989381742#0"/>
    <trip id="veh220" type="veh_passenger" depart="126.72" departLane="best" departSpeed="max" from="46817180#0" to="958188025"/>
    <trip id="veh221" type="veh_passenger" depart="127.30" departLane="best" from="825868579#0" to="480682395"/>
    <trip id="veh222" type="veh_passenger" depart="127.87" departLane="best" from="5671291#3" to="450807242#0"/>
    <trip id="veh223" type="veh_passenger" depart="128.45" departLane="best" from="630828596#0" to="46165821#0"/>
    <trip id="veh224" type="veh_passenger" depart="129.03" departLane="best" from="835694479#0" to="5673073#0"/>
    <trip id="veh225" type="veh_passenger" depart="129.60" departLane="best" from="421832644#1" to="19725512#0"/>
    <trip id="veh226" type="veh_passenger" depart="130.18" departLane="best" from="194923776#0" to="515879032#8"/>
    <trip id="veh227" type="veh_passenger" depart="130.76" departLane="best" from="5676656#12" to="46121847"/>
    <trip id="veh228" type="veh_passenger" depart="131.33" departLane="best" from="485803940#0" to="221686898#0"/>
    <trip id="veh229" type="veh_passenger" depart="131.91" departLane="best" departSpeed="max" from="-533394975#2" to="222299274#0"/>
    <trip id="veh230" type="veh_passenger" depart="132.48" departLane="best" from="220463588#0" to="25564091#0"/>
    <trip id="veh231" type="veh_passenger" depart="133.06" departLane="best" from="46154285#0" to="1010159653#0"/>
    <trip id="veh232" type="veh_passenger" depart="133.64" departLane="best" departSpeed="max" from="157019571#0" to="5670578#3"/>
    <trip id="veh233" type="veh_passenger" depart="134.21" departLane="best" from="5670711#0" to="-467222856#2"/>
    <trip id="veh234" type="veh_passenger" depart="134.79" departLane="best" from="420352248#0" to="46160365#12"/>
    <trip id="veh235" type="veh_passenger" depart="135.36" departLane="best" from="420358892#0" to="118400726#0"/>
    <trip id="veh236" type="veh_passenger" depart="135.94" departLane="best" from="420570973" to="847731411#0"/>
    <trip id="veh237" type="veh_passenger" depart="136.52" departLane="best" from="46629376#1" to="5670618#0"/>
    <trip id="veh238" type="veh_passenger" depart="137.09" departLane="best" from="733432852#15" to="5678387#0"/>
    <trip id="veh239" type="veh_passenger" depart="137.67" departLane="best" from="40709921#0" to="-1080982427#1"/>
    <trip id="veh240" type="veh_passenger" depart="138.24" departLane="best" from="32936741" to="5676348#0"/>
    <trip id="veh241" type="veh_passenger" depart="138.82" departLane="best" from="727644279#0" to="959024723"/>
    <trip id="veh242" type="veh_passenger" depart="139.40" departLane="best" from="420530113#0" to="5673211#0"/>
    <trip id="veh243" type="veh_passenger" depart="139.97" departLane="best" from="46160330#7" to="46863502#6"/>
    <trip id="veh244" type="veh_passenger" depart="140.55" departLane="best" from="125527383" to="154513050#1"/>
    <trip id="veh245" type="veh_passenger" depart="141.12" departLane="best" from="420809419#8" to="-239629072#4"/>
    <trip id="veh246" type="veh_passenger" depart="141.70" departLane="best" from="273326374#2" to="5669933#0"/>
    <trip id="veh247" type="veh_passenger" depart="142.28" departLane="best" from="420352241#0" to="1036714799#0"/>
    <trip id="veh248" type="veh_passenger" depart="142.85" departLane="best" departSpeed="max" from="421825692#0" to="-956944192#0"/>
    <trip id="veh249" type="veh_passenger" depart="143.43" departLane="best" from="480682394#0" to="-227074777#2"/>
    <trip id="veh250" type="veh_passenger" depart="144.00" departLane="best" from="413056164#0" to="46348767#3"/>
    <trip id="veh251" type="veh_passenger" depart="144.58" departLane="best" from="-239629072#4" to="524387550#0"/>
    <trip id="veh252" type="veh_passenger" depart="145.16" departLane="best" from="-997125811#2" to="421825692#11"/>
    <trip id="veh253" type="veh_passenger" depart="145.73" departLane="best" departSpeed="max" from="-455201237" to="412174929#0"/>
    <trip id="veh254" type="veh_passenger" depart="146.31" departLane="best" from="116672642#2" to="273325407#0"/>
    <trip id="veh255" type="veh_passenger" depart="146.88" departLane="best" from="5673614" to="412174929#0"/>
    <trip id="veh256" type="veh_passenger" depart="147.46" departLane="best" from="5672971#0" to="675967321#0"/>
    <trip id="veh257" type="veh_passenger" depart="148.04" departLane="best" from="195743179#1" to="-5670574#2"/>
    <trip id="veh258" type="veh_passenger" depart="148.61" departLane="best" from="-221607739" to="46154327#5"/>
    <trip id="veh259" type="veh_passenger" depart="149.19" departLane="best" from="997455683" to="349873702#0"/>