<?xml version="1.0" encoding="UTF-8"?>

<!-- generated on 2022-11-11 10:00:39.838031 by osmWebWizard.py UNKNOWN
<configuration>
    <end value="3600"/>
    <fringe-factor value="5.0"/>
    <fringe-start-attributes value="departSpeed=&quot;max&quot;"/>
    <min-distance value="600.0"/>
    <net-file value="/Users/hjalte/2022-11-11-10-00-00/osm.net.xml"/>
    <period value="0.8640198296006977"/>
    <route-file value="/Users/hjalte/2022-11-11-10-00-00/osm.truck.rou.xml"/>
    <trip-attributes value="departLane=&quot;best&quot;"/>
    <output-trip-file value="/Users/hjalte/2022-11-11-10-00-00/osm.truck.trips.xml"/>
    <prefix value="truck"/>
    <validate value="True"/>
    <vclass value="truck"/>
    <vehicle-class value="truck"/>
</configuration>
-->

<!-- generated on 2022-11-11 10:00:38 by Eclipse SUMO duarouter Version 1.14.1
<configuration xmlns:xsi="http://www.w3.org/2001/XMLSchema-instance" xsi:noNamespaceSchemaLocation="http://sumo.dlr.de/xsd/duarouterConfiguration.xsd">

    <input>
        <net-file value="/Users/hjalte/2022-11-11-10-00-00/osm.net.xml"/>
        <route-files value="/Users/hjalte/2022-11-11-10-00-00/osm.truck.trips.xml"/>
    </input>

    <output>
        <output-file value="/Users/hjalte/2022-11-11-10-00-00/osm.truck.trips.xml.tmp"/>
        <alternatives-output value="NUL"/>
        <write-trips value="true"/>
    </output>

    <time>
        <begin value="0"/>
        <end value="3600"/>
    </time>

    <report>
        <no-warnings value="true"/>
        <ignore-errors value="true"/>
        <no-step-log value="true"/>
    </report>

</configuration>
-->

<routes xmlns:xsi="http://www.w3.org/2001/XMLSchema-instance" xsi:noNamespaceSchemaLocation="http://sumo.dlr.de/xsd/routes_file.xsd">
    <vType id="truck_truck" vClass="truck"/>
    <trip id="truck0" type="truck_truck" depart="0.00" departLane="best" from="539024460#0" to="-198924634#5"/>
    <trip id="truck1" type="truck_truck" depart="0.86" departLane="best" from="195743554#20" to="1111954748"/>
    <trip id="truck2" type="truck_truck" depart="1.73" departLane="best" from="5672899#3" to="5670512#3"/>
    <trip id="truck3" type="truck_truck" depart="2.59" departLane="best" from="812936280#2" to="-480682391#1"/>
    <trip id="truck4" type="truck_truck" depart="3.46" departLane="best" from="420352241#0" to="-226040986#1"/>
    <trip id="truck5" type="truck_truck" depart="4.32" departLane="best" departSpeed="max" from="1085686679#0" to="46139034#5"/>
    <trip id="truck6" type="truck_truck" depart="5.18" departLane="best" from="1087974362#0" to="46863502#0"/>
    <trip id="truck7" type="truck_truck" depart="6.05" departLane="best" from="5680990#2" to="-1080978586#0"/>
    <trip id="truck8" type="truck_truck" depart="6.91" departLane="best" from="5680862#0" to="5671291#0"/>
    <trip id="truck9" type="truck_truck" depart="7.78" departLane="best" from="25167210#5" to="-886830947#1"/>
    <trip id="truck10" type="truck_truck" depart="8.64" departLane="best" from="955261513#0" to="25167444"/>
    <trip id="truck11" type="truck_truck" depart="9.50" departLane="best" from="669685948#0" to="481962896#0"/>
    <trip id="truck12" type="truck_truck" depart="10.37" departLane="best" from="5680902#15" to="5672871#3"/>
    <trip id="truck13" type="truck_truck" depart="11.23" departLane="best" from="46201668#7" to="963576911"/>
    <trip id="truck14" type="truck_truck" depart="12.10" departLane="best" departSpeed="max" from="357279521" to="464169428#24"/>
    <trip id="truck15" type="truck_truck" depart="12.96" departLane="best" from="587038049#0" to="497143249#6"/>
    <trip id="truck16" type="truck_truck" depart="13.82" departLane="best" from="706833047#0" to="46817509#1"/>
    <trip id="truck18" type="truck_truck" depart="15.55" departLane="best" from="111826111#3" to="221607740#3"/>
    <trip id="truck19" type="truck_truck" depart="16.42" departLane="best" from="-46349386#2" to="125528659#0"/>
    <trip id="truck20" type="truck_truck" depart="17.28" departLane="best" from="-560788343#2" to="198924634#0"/>
    <trip id="truck21" type="truck_truck" depart="18.14" departLane="best" from="528760528#0" to="317400962#0"/>
    <trip id="truck22" type="truck_truck" depart="19.01" departLane="best" from="194923786#0" to="891074599#0"/>
    <trip id="truck23" type="truck_truck" depart="19.87" departLane="best" departSpeed="max" from="559907542#0" to="494221658#0"/>
    <trip id="truck24" type="truck_truck" depart="20.74" departLane="best" from="1004369132#0" to="5672803#0"/>
    <trip id="truck26" type="truck_truck" depart="22.46" departLane="best" from="981500816#0" to="541345307#0"/>
    <trip id="truck27" type="truck_truck" depart="23.33" departLane="best" departSpeed="max" from="46610726#0" to="5670703#3"/>
    <trip id="truck29" type="truck_truck" depart="25.06" departLane="best" from="112116235#2" to="-227064538#1"/>
    <trip id="truck30" type="truck_truck" depart="25.92" departLane="best" departSpeed="max" from="227074775#0" to="195743264#0"/>
    <trip id="truck31" type="truck_truck" depart="26.78" departLane="best" from="1080873866" to="910484222#0"/>
    <trip id="truck33" type="truck_truck" depart="28.51" departLane="best" from="5669639#0" to="40336235"/>
    <trip id="truck34" type="truck_truck" depart="29.38" departLane="best" from="837515833#0" to="421825693#0"/>
    <trip id="truck35" type="truck_truck" depart="30.24" departLane="best" from="194923763#0" to="157019568#8"/>
    <trip id="truck36" type="truck_truck" depart="31.10" departLane="best" from="46819916" to="813956617#18"/>
    <trip id="truck37" type="truck_truck" depart="31.97" departLane="best" departSpeed="max" from="40117454#0" to="110155729"/>
    <trip id="truck38" type="truck_truck" depart="32.83" departLane="best" from="993797876#4" to="46139048#4"/>
    <trip id="truck39" type="truck_truck" depart="33.70" departLane="best" from="-483140985#2" to="-277201109#2"/>
    <trip id="truck40" type="truck_truck" depart="34.56" departLane="best" from="-5672060#1" to="524394634#0"/>
    <trip id="truck41" type="truck_truck" depart="35.42" departLane="best" departSpeed="max" from="5679151#0" to="420355077#0"/>
    <trip id="truck42" type="truck_truck" depart="36.29" departLane="best" departSpeed="max" from="-455201237" to="380098432#0"/>
    <trip id="truck44" type="truck_truck" depart="38.02" departLane="best" from="962816206" to="733432852#27"/>
    <trip id="truck45" type="truck_truck" depart="38.88" departLane="best" from="-157019562#5" to="5672321#0"/>
    <trip id="truck46" type="truck_truck" depart="39.74" departLane="best" from="194923778#0" to="543879672#2"/>
    <trip id="truck47" type="truck_truck" depart="40.61" departLane="best" departSpeed="max" from="-5672148#4" to="420809409#0"/>
    <trip id="truck48" type="truck_truck" depart="41.47" departLane="best" from="420888152" to="955261511#0"/>
    <trip id="truck50" type="truck_truck" depart="43.20" departLane="best" from="460624365#0" to="1021949727#0"/>
    <trip id="truck52" type="truck_truck" depart="44.93" departLane="best" from="485803940#0" to="-845781908#5"/>
    <trip id="truck53" type="truck_truck" depart="45.79" departLane="best" departSpeed="max" from="5677017#0" to="462421592#0"/>
    <trip id="truck54" type="truck_truck" depart="46.66" departLane="best" departSpeed="max" from="5678604#0" to="46171879#0"/>
    <trip id="truck55" type="truck_truck" depart="47.52" departLane="best" from="-1007837779#2" to="23168582#0"/>
    <trip id="truck56" type="truck_truck" depart="48.39" departLane="best" from="-198924568#5" to="847932925#0"/>
    <trip id="truck57" type="truck_truck" depart="49.25" departLane="best" from="799407328#9" to="643000848"/>
    <trip id="truck58" type="truck_truck" depart="50.11" departLane="best" from="226041016#0" to="-420884520#1"/>
    <trip id="truck59" type="truck_truck" depart="50.98" departLane="best" from="799407328#2" to="944283074#0"/>
    <trip id="truck60" type="truck_truck" depart="51.84" departLane="best" from="-46863502#15" to="447018423#4"/>
    <trip id="truck61" type="truck_truck" depart="52.71" departLane="best" from="-46154337#6" to="5677576#2"/>
    <trip id="truck62" type="truck_truck" depart="53.57" departLane="best" departSpeed="max" from="5677229#0" to="-5681879#0"/>
    <trip id="truck63" type="truck_truck" depart="54.43" departLane="best" from="438900013#0" to="464169408#0"/>
    <trip id="truck64" type="truck_truck" depart="55.30" departLane="best" from="194923763#2" to="799480719#0"/>
    <trip id="truck65" type="truck_truck" depart="56.16" departLane="best" from="420352248#0" to="1081177739#1"/>
    <trip id="truck66" type="truck_truck" depart="57.03" departLane="best" departSpeed="max" from="1050255676#0" to="227064559#3"/>
    <trip id="truck67" type="truck_truck" depart="57.89" departLane="best" from="992141077#9" to="5669190"/>
    <trip id="truck68" type="truck_truck" depart="58.75" departLane="best" from="420772654#0" to="46154332#0"/>
    <trip id="truck69" type="truck_truck" depart="59.62" departLane="best" from="-5680339#1" to="112116235#0"/>
    <trip id="truck72" type="truck_truck" depart="62.21" departLane="best" from="-46160404#8" to="525698215#0"/>
    <trip id="truck73" type="truck_truck" depart="63.07" departLane="best" from="112116235#0" to="825875764#0"/>
    <trip id="truck74" type="truck_truck" depart="63.94" departLane="best" from="697704861#0" to="-46154281#7"/>
    <trip id="truck75" type="truck_truck" depart="64.80" departLane="best" from="125527384" to="5670092#4"/>
    <trip id="truck76" type="truck_truck" depart="65.67" departLane="best" from="847950378#0" to="46816995#5"/>
    <trip id="truck77" type="truck_truck" depart="66.53" departLane="best" from="438366913#0" to="5680167#0"/>
    <trip id="truck78" type="truck_truck" depart="67.39" departLane="best" from="5680902#3" to="1036714798#2"/>
    <trip id="truck79" type="truck_truck" depart="68.26" departLane="best" departSpeed="max" from="-529713036#6" to="420629955#0"/>
    <trip id="truck80" type="truck_truck" depart="69.12" departLane="best" from="420352250#0" to="433124968#5"/>
    <trip id="truck81" type="truck_truck" depart="69.99" departLane="best" from="5672510#0" to="5670268#0"/>
    <trip id="truck82" type="truck_truck" depart="70.85" departLane="best" from="978431658#0" to="-5670510#3"/>
    <trip id="truck83" type="truck_truck" depart="71.71" departLane="best" from="40712688#0" to="25199883#3"/>
    <trip id="truck84" type="truck_truck" depart="72.58" departLane="best" from="706833047#0" to="165672323#0"/>
    <trip id="truck85" type="truck_truck" depart="73.44" departLane="best" from="1034527689#0" to="420886399#0"/>
    <trip id="truck86" type="truck_truck" depart="74.31" departLane="best" from="420352241#0" to="198924660#0"/>
    <trip id="truck87" type="truck_truck" depart="75.17" departLane="best" from="157012398#3" to="846321988#4"/>
    <trip id="truck88" type="truck_truck" depart="76.03" departLane="best" from="420809440#0" to="733432852#33"/>
    <trip id="truck89" type="truck_truck" depart="76.90" departLane="best" from="464169428#9" to="-397839400#6"/>
    <trip id="truck90" type="truck_truck" depart="77.76" departLane="best" from="993797893#0" to="655260632"/>
    <trip id="truck91" type="truck_truck" depart="78.63" departLane="best" from="959701117" to="847931435#4"/>
    <trip id="truck92" type="truck_truck" depart="79.49" departLane="best" from="675967321#0" to="1002798653#0"/>
    <trip id="truck93" type="truck_truck" depart="80.35" departLane="best" from="440633442#0" to="1087974356"/>
    <trip id="truck94" type="truck_truck" depart="81.22" departLane="best" from="40337709#0" to="-420886410"/>
    <trip id="truck95" type="truck_truck" depart="82.08" departLane="best" departSpeed="max" from="357279521" to="978675658#5"/>
    <trip id="truck96" type="truck_truck" depart="82.95" departLane="best" from="194923763#2" to="5680142#5"/>
    <trip id="truck97" type="truck_truck" depart="83.81" departLane="best" from="420890092-AddedOffRampEdge" to="420356798#0"/>
    <trip id="truck98" type="truck_truck" depart="84.67" departLane="best" from="955261513#0" to="993797873#0"/>
    <trip id="truck99" type="truck_truck" depart="85.54" departLane="best" from="46608205#6" to="5672138#3"/>
    <trip id="truck100" type="truck_truck" depart="86.40" departLane="best" from="-826003969#3" to="221687788#0"/>
    <trip id="truck101" type="truck_truck" depart="87.27" departLane="best" from="959159711" to="46817511#9"/>
    <trip id="truck102" type="truck_truck" depart="88.13" departLane="best" from="46332307#0" to="5674191"/>
    <trip id="truck103" type="truck_truck" depart="88.99" departLane="best" from="-42786502#7" to="46835370#0"/>
    <trip id="truck104" type="truck_truck" depart="89.86" departLane="best" from="-847731411#3" to="957085297"/>
    <trip id="truck105" type="truck_truck" depart="90.72" departLane="best" from="-46349386#8" to="1032481037#0"/>
    <trip id="truck106" type="truck_truck" depart="91.59" departLane="best" from="46863522#0" to="5670440#0"/>
    <trip id="truck107" type="truck_truck" depart="92.45" departLane="best" from="124814435#10" to="-5679155#2"/>
    <trip id="truck108" type="truck_truck" depart="93.31" departLane="best" departSpeed="max" from="808611047" to="157019568#2"/>
    <trip id="truck109" type="truck_truck" depart="94.18" departLane="best" from="46863518#0" to="497755047#0"/>
    <trip id="truck110" type="truck_truck" depart="95.04" departLane="best" from="414894542#1" to="46835368#0"/>
    <trip id="truck111" type="truck_truck" depart="95.91" departLane="best" from="46160244#0" to="875360680#0"/>
    <trip id="truck112" type="truck_truck" depart="96.77" departLane="best" from="1053854886#0" to="5672027#3"/>
    <trip id="truck113" type="truck_truck" depart="97.63" departLane="best" from="127691870" to="40336235"/>
    <trip id="truck114" type="truck_truck" depart="98.50" departLane="best" from="5670168#0" to="221694587"/>
    <trip id="truck115" type="truck_truck" depart="99.36" departLane="best" departSpeed="max" from="227074777#0" to="5676656#12"/>
    <trip id="truck116" type="truck_truck" depart="100.23" departLane="best" departSpeed="max" from="-46165819#1" to="421825692#2"/>
    <trip id="truck118" type="truck_truck" depart="101.95" departLane="best" from="194923763#2" to="852143563"/>
    <trip id="truck119" type="truck_truck" depart="102.82" departLane="best" from="799825254" to="805465679#33"/>
    <trip id="truck120" type="truck_truck" depart="103.68" departLane="best" from="32934362#0" to="-908150696#2"/>
    <trip id="truck121" type="truck_truck" depart="104.55" departLane="best" from="588293370#1" to="5671410#0"/>
    <trip id="truck122" type="truck_truck" depart="105.41" departLane="best" from="496977101#3" to="981500699#3"/>
    <trip id="truck123" type="truck_truck" depart="106.27" departLane="best" departSpeed="max" from="5681879#0" to="221694586#0"/>
    <trip id="truck124" type="truck_truck" depart="107.14" departLane="best" departSpeed="max" from="5669962#0" to="904809346#0"/>
    <trip id="truck125" type="truck_truck" depart="108.00" departLane="best" departSpeed="max" from="-617084574#2" to="-5678060#2"/>
    <trip id="truck126" type="truck_truck" depart="108.87" departLane="best" from="-5671028#2" to="464169428#30"/>
    <trip id="truck127" type="truck_truck" depart="109.73" departLane="best" from="195743229#0" to="483140980#2"/>
    <trip id="truck128" type="truck_truck" depart="110.59" departLane="best" from="5671754#1" to="1067728688#0"/>
    <trip id="truck129" type="truck_truck" depart="111.46" departLane="best" from="526839039#2" to="194923810#6"/>
    <trip id="truck130" type="truck_truck" depart="112.32" departLane="best" from="446864091#7" to="825875764#0"/>
    <trip id="truck131" type="truck_truck" depart="113.19" departLane="best" from="662161062#0" to="-525656842#2"/>
    <trip id="truck132" type="truck_truck" depart="114.05" departLane="best" from="420352250#0" to="198924579#6"/>
    <trip id="truck133" type="truck_truck" depart="114.91" departLane="best" from="-1080319438#2" to="5678929#11"/>
    <trip id="truck134" type="truck_truck" depart="115.78" departLane="best" from="533472710" to="194923786#0"/>
    <trip id="truck135" type="truck_truck" depart="116.64" departLane="best" from="5673073#0" to="464169428#21"/>
    <trip id="truck136" type="truck_truck" depart="117.51" departLane="best" from="420358894#0" to="-1087974362#1"/>
    <trip id="truck137" type="truck_truck" depart="118.37" departLane="best" from="-46201668#11" to="805465682#2"/>
    <trip id="truck138" type="truck_truck" depart="119.23" departLane="best" from="814840327" to="46348790#0"/>
    <trip id="truck139" type="truck_truck" depart="120.10" departLane="best" from="591772210#6" to="46819913"/>
    <trip id="truck140" type="truck_truck" depart="120.96" departLane="best" from="-813956617#14" to="-5681879#0"/>
    <trip id="truck141" type="truck_truck" depart="121.83" departLane="best" from="226193904#0" to="813956617#9"/>
    <trip id="truck142" type="truck_truck" depart="122.69" departLane="best" from="812965807#3" to="1080978585#1"/>
    <trip id="truck143" type="truck_truck" depart="123.55" departLane="best" from="157012398#0" to="-5671307#6"/>
    <trip id="truck144" type="truck_truck" depart="124.42" departLane="best" from="5678626#0" to="808611026"/>
    <trip id="truck145" type="truck_truck" depart="125.28" departLane="best" from="412115641#4" to="505772014#0"/>
    <trip id="truck146" type="truck_truck" depart="126.15" departLane="best" from="-826003969#0" to="847942275"/>
    <trip id="truck148" type="truck_truck" depart="127.87" departLane="best" from="-221686900#2" to="5672987#3"/>
    <trip id="truck149" type="truck_truck" depart="128.74" departLane="best" from="239626770#0" to="847950378#0"/>
    <trip id="truck150" type="truck_truck" depart="129.60" departLane="best" from="5680220" to="765145018#0"/>
    <trip id="truck152" type="truck_truck" depart="131.33" departLane="best" from="5678940#3" to="-5672922#5"/>
    <trip id="truck153" type="truck_truck" depart="132.20" departLane="best" from="765274320" to="729972920#2"/>
    <trip id="truck154" type="truck_truck" depart="133.06" departLane="best" from="1091757184" to="587355678"/>
    <trip id="truck155" type="truck_truck" depart="133.92" departLane="best" departSpeed="max" from="421825692#0" to="222299274#0"/>
    <trip id="truck156" type="truck_truck" depart="134.79" departLane="best" from="5679242#0" to="122625703"/>
    <trip id="truck157" type="truck_truck" depart="135.65" departLane="best" from="-221607365#7" to="1038965623#6"/>
    <trip id="truck158" type="truck_truck" depart="136.52" departLane="best" from="23168561#0" to="765149015#0"/>
    <trip id="truck159" type="truck_truck" depart="137.38" departLane="best" departSpeed="max" from="958254532" to="198924660#3"/>
    <trip id="truck160" type="truck_truck" depart="138.24" departLane="best" from="541346245#0" to="40712688#12"/>
    <trip id="truck161" type="truck_truck" depart="139.11" departLane="best" from="968737541#3" to="46201677#0"/>
    <trip id="truck162" type="truck_truck" depart="139.97" departLane="best" from="902704753#0" to="-5678060#2"/>
    <trip id="truck163" type="truck_truck" depart="140.84" departLane="best" from="962156559#2" to="1021949726#3"/>
    <trip id="truck164" type="truck_truck" depart="141.70" departLane="best" from="956944192#1" to="195743195#0"/>
    <trip id="truck165" type="truck_truck" depart="142.56" departLane="best" from="-5671307#5" to="420809409#0"/>
    <trip id="truck166" type="truck_truck" depart="143.43" departLane="best" from="5672410#0" to="227074795#0"/>
    <trip id="truck167" type="truck_truck" depart="144.29" departLane="best" from="481403101#0" to="46141630#15"/>
    <trip id="truck168" type="truck_truck" depart="145.16" departLane="best" from="38605248" to="46817497#0"/>
    <trip id="truck169" type="truck_truck" depart="146.02" departLane="best" from="160309051#2" to="5671603#0"/>
    <trip id="truck170" type="truck_truck" depart="146.88" departLane="best" from="-1015379881" to="847921886#0"/>
    <trip id="truck171" type="truck_truck" depart="147.75" departLane="best" from="46224850" to="5672168#3"/>
    <trip id="truck172" type="truck_truck" depart="148.61" departLane="best" from="5673073#6" to="5670172#3"/>
    <trip id="truck173" type="truck_truck" depart="149.48" departLane="best" from="5669962#10" to="24263967#2"/>
    <trip id="truck174" type="truck_truck" depart="150.34" departLane="best" from="5672027#0" to="221694588#0"/>
    <trip id="truck175" type="truck_truck" depart="151.20" departLane="best" from="226193929#4" to="413051876#0"/>
    <trip id="truck176" type="truck_truck" depart="152.07" departLane="best" from="40709928#3" to="221686901#3"/>
    <trip id="truck177" type="truck_truck" depart="152.93" departLane="best" from="-584971510#1" to="420352249#0"/>
    <trip id="truck178" type="truck_truck" depart="153.80" departLane="best" from="903593425#0" to="5670512#3"/>
    <trip id="truck179" type="truck_truck" depart="154.66" departLane="best" from="813956617#9" to="496986997#0"/>
    <trip id="truck180" type="truck_truck" depart="155.52" departLane="best" from="221694590#0" to="46350695#0"/>
    <trip id="truck181" type="truck_truck" depart="156.39" departLane="best" from="-1007811374#1" to="221607365#5"/>
    <trip id="truck182" type="truck_truck" depart="157.25" departLane="best" from="420530114#1" to="46817518#0"/>
    <trip id="truck183" type="truck_truck" depart="158.12" departLane="best" from="5669633#0" to="432550169"/>
    <trip id="truck184" type="truck_truck" depart="158.98" departLane="best" from="420809425#0" to="1087974356"/>
    <trip id="truck185" type="truck_truck" depart="159.84" departLane="best" from="438370108" to="818255303#0"/>
    <trip id="truck186" type="truck_truck" depart="160.71" departLane="best" from="5679242#4" to="1007837779#0"/>
    <trip id="truck187" type="truck_truck" depart="161.57" departLane="best" from="-46819509#3" to="46154300#5"/>
    <trip id="truck188" type="truck_truck" depart="162.44" departLane="best" from="525656847#0" to="25166922#0"/>
    <trip id="truck189" type="truck_truck" depart="163.30" departLane="best" from="5682012#1" to="5676457#0"/>
    <trip id="truck190" type="truck_truck" depart="164.16" departLane="best" from="5670172#6" to="112116235#0"/>
    <trip id="truck191" type="truck_truck" depart="165.03" departLane="best" from="1049852135" to="-198924605#6"/>
    <trip id="truck192" type="truck_truck" depart="165.89" departLane="best" from="154513049#3" to="439842831#4"/>
    <trip id="truck193" type="truck_truck" depart="166.76" departLane="best" from="681061720#0" to="-46160106"/>
    <trip id="truck194" type="truck_truck" depart="167.62" departLane="best" from="413212450#2" to="525656841#0"/>
    <trip id="truck195" type="truck_truck" depart="168.48" departLane="best" from="1038787431#0" to="5671197#0"/>
    <trip id="truck196" type="truck_truck" depart="169.35" departLane="best" from="5669742#0" to="-1080978584#0"/>
    <trip id="truck197" type="truck_truck" depart="170.21" departLane="best" from="5673614" to="5678676#9"/>
    <trip id="truck198" type="truck_truck" depart="171.08" departLane="best" from="-5670574#2" to="420358896#0"/>
    <trip id="truck199" type="truck_truck" depart="171.94" departLane="best" from="1021063591" to="955301426#0"/>
    <trip id="truck200" type="truck_truck" depart="172.80" departLane="best" from="46154296#8" to="-397839400#3"/>
    <trip id="truck201" type="truck_truck" depart="173.67" departLane="best" from="157012387#0" to="685336630#7"/>
    <trip id="truck202" type="truck_truck" depart="174.53" departLane="best" from="421746241#3" to="5681959#0"/>
    <trip id="truck203" type="truck_truck" depart="175.40" departLane="best" from="5670084#12" to="981500700#0"/>
    <trip id="truck204" type="truck_truck" depart="176.26" departLane="best" from="46863522#3" to="952703048#0"/>
    <trip id="truck205" type="truck_truck" depart="177.12" departLane="best" from="812936280#0" to="496980201#2"/>
    <trip id="truck206" type="truck_truck" depart="177.99" departLane="best" from="5671928#0" to="46139034#0"/>
    <trip id="truck207" type="truck_truck" depart="178.85" departLane="best" from="587067512#0" to="46350695#0"/>
    <trip id="truck208" type="truck_truck" depart="179.72" departLane="best" from="812965805#3" to="5673342#0"/>
    <trip id="truck209" type="truck_truck" depart="180.58" departLane="best" departSpeed="max" from="438388090" to="194923761#1"/>
    <trip id="truck210" type="truck_truck" depart="181.44" departLane="best" from="157012386#13" to="539024459#4"/>
    <trip id="truck211" type="truck_truck" depart="182.31" departLane="best" departSpeed="max" from="5677229#0" to="46160365#12"/>
    <trip id="truck212" type="truck_truck" depart="183.17" departLane="best" from="521358279" to="198924566#0"/>
    <trip id="truck213" type="truck_truck" depart="184.04" departLane="best" departSpeed="max" from="-462421592#2" to="221605487#2"/>
    <trip id="truck214" type="truck_truck" depart="184.90" departLane="best" from="195743226#0" to="22927946#0"/>
    <trip id="truck215" type="truck_truck" depart="185.76" departLane="best" from="46332295#7" to="-675967321#2"/>
    <trip id="truck216" type="truck_truck" depart="186.63" departLane="best" from="118400728#0" to="5671095#0"/>
    <trip id="truck217" type="truck_truck" depart="187.49" departLane="best" from="5671413#0" to="-440681437#2"/>
    <trip id="truck218" type="truck_truck" depart="188.36" departLane="best" departSpeed="max" from="413749473" to="1080873867"/>
    <trip id="truck219" type="truck_truck" depart="189.22" departLane="best" from="420351718#0" to="825868575"/>
    <trip id="truck220" type="truck_truck" depart="190.08" departLane="best" from="46819912" to="5671158#0"/>
    <trip id="truck221" type="truck_truck" depart="190.95" departLane="best" from="68668559#3" to="5677982#0"/>
    <trip id="truck222" type="truck_truck" depart="191.81" departLane="best" from="357946354#6" to="-1080978584#1"/>
    <trip id="truck223" type="truck_truck" depart="192.68" departLane="best" from="256902828" to="5676877#2"/>
    <trip id="truck224" type="truck_truck" depart="193.54" departLane="best" from="685336630#0" to="955237975#0"/>
    <trip id="truck225" type="truck_truck" depart="194.40" departLane="best" from="414893144#0" to="5674191"/>
    <trip id="truck226" type="truck_truck" depart="195.27" departLane="best" from="1087974365" to="110155729"/>
    <trip id="truck227" type="truck_truck" depart="196.13" departLane="best" from="420629963#0" to="-221686901#2"/>
    <trip id="truck228" type="truck_truck" depart="197.00" departLane="best" from="243503933" to="5670560#0"/>
    <trip id="truck229" type="truck_truck" depart="197.86" departLane="best" from="40837877#1" to="-986808853#1"/>
    <trip id="truck230" type="truck_truck" depart="198.72" departLane="best" from="42786502#0" to="-5681879#0"/>
    <trip id="truck231" type="truck_truck" depart="199.59" departLane="best" from="497769952#0" to="-221607365#2"/>
    <trip id="truck232" type="truck_truck" depart="200.45" departLane="best" from="39662325#2" to="466956278#0"/>
    <trip id="truck233" type="truck_truck" depart="201.32" departLane="best" from="-226040986#1" to="543897624#4"/>
    <trip id="truck235" type="truck_truck" depart="203.04" departLane="best" from="1080873869#1" to="239626770#0"/>
    <trip id="truck238" type="truck_truck" depart="205.64" departLane="best" departSpeed="max" from="157019571#0" to="-46817192#1"/>
    <trip id="truck239" type="truck_truck" depart="206.50" departLane="best" from="-198924568#5" to="462421592#0"/>
    <trip id="truck240" type="truck_truck" depart="207.36" departLane="best" from="997455683" to="273325407#0"/>
    <trip id="truck241" type="truck_truck" depart="208.23" departLane="best" from="561084838#0" to="5679242#5"/>
    <trip id="truck242" type="truck_truck" depart="209.09" departLane="best" from="5668999#3" to="5676877#2"/>
    <trip id="truck243" type="truck_truck" depart="209.96" departLane="best" from="945127744" to="1052627487#0"/>
    <trip id="truck244" type="truck_truck" depart="210.82" departLane="best" from="-198924605#6" to="-845781907#5"/>
    <trip id="truck245" type="truck_truck" depart="211.68" departLane="best" departSpeed="max" from="-573838648" to="5670167#0"/>
    <trip id="truck246" type="truck_truck" depart="212.55" departLane="best" from="467222812#6" to="1096427015#0"/>
    <trip id="truck247" type="truck_truck" depart="213.41" departLane="best" from="5671197#1" to="5678368#0"/>
    <trip id="truck248" type="truck_truck" depart="214.28" departLane="best" from="-986808853#1" to="485803940#0"/>
    <trip id="truck249" type="truck_truck" depart="215.14" departLane="best" from="5673424#5" to="-5677555#5"/>
    <trip id="truck250" type="truck_truck" depart="216.00" departLane="best" from="5682056#10" to="959024723"/>
    <trip id="truck251" type="truck_truck" depart="216.87" departLane="best" from="-5671296#1" to="-221605485#1"/>
    <trip id="truck252" type="truck_truck" depart="217.73" departLane="best" from="226193933#18" to="5670512#3"/>
    <trip id="truck253" type="truck_truck" depart="218.60" departLane="best" from="955293893#0" to="40337709#0"/>
    <trip id="truck254" type="truck_truck" depart="219.46" departLane="best" from="5671713#0" to="-46171888#2"/>
    <trip id="truck255" type="truck_truck" depart="220.33" departLane="best" from="5670820#3" to="524394634#0"/>
    <trip id="truck256" type="truck_truck" depart="221.19" departLane="best" from="-561084838#7" to="5678929#4"/>
    <trip id="truck257" type="truck_truck" depart="222.05" departLane="best" from="682470409#2" to="480112484#0"/>
    <trip id="truck258" type="truck_truck" depart="222.92" departLane="best" from="-5680339#1" to="975439536#0"/>