<?xml version="1.0" encoding="UTF-8"?>

<!-- generated on 2022-11-11 10:00:41.512191 by osmWebWizard.py UNKNOWN
<configuration>
    <end value="3600"/>
    <fringe-factor value="5.0"/>
    <fringe-start-attributes value="departSpeed=&quot;max&quot;"/>
    <min-distance value="600.0"/>
    <net-file value="/Users/hjalte/2022-11-11-10-00-00/osm.net.xml"/>
    <period value="1.7618020180854848"/>
    <route-file value="/Users/hjalte/2022-11-11-10-00-00/osm.bus.rou.xml"/>
    <trip-attributes value="departLane=&quot;best&quot;"/>
    <output-trip-file value="/Users/hjalte/2022-11-11-10-00-00/osm.bus.trips.xml"/>
    <prefix value="bus"/>
    <validate value="True"/>
    <vclass value="bus"/>
    <vehicle-class value="bus"/>
</configuration>
-->

<!-- generated on 2022-11-11 10:00:41 by Eclipse SUMO duarouter Version 1.14.1
<configuration xmlns:xsi="http://www.w3.org/2001/XMLSchema-instance" xsi:noNamespaceSchemaLocation="http://sumo.dlr.de/xsd/duarouterConfiguration.xsd">

    <input>
        <net-file value="/Users/hjalte/2022-11-11-10-00-00/osm.net.xml"/>
        <route-files value="/Users/hjalte/2022-11-11-10-00-00/osm.bus.trips.xml"/>
    </input>

    <output>
        <output-file value="/Users/hjalte/2022-11-11-10-00-00/osm.bus.trips.xml.tmp"/>
        <alternatives-output value="NUL"/>
        <write-trips value="true"/>
    </output>

    <time>
        <begin value="0"/>
        <end value="3600"/>
    </time>

    <report>
        <no-warnings value="true"/>
        <ignore-errors value="true"/>
        <no-step-log value="true"/>
    </report>

</configuration>
-->

<routes xmlns:xsi="http://www.w3.org/2001/XMLSchema-instance" xsi:noNamespaceSchemaLocation="http://sumo.dlr.de/xsd/routes_file.xsd">
    <vType id="bus_bus" vClass="bus"/>
    <trip id="bus0" type="bus_bus" depart="0.00" departLane="best" from="539024459#4" to="-198924634#5"/>
    <trip id="bus1" type="bus_bus" depart="1.76" departLane="best" from="195743554#13" to="1111910062"/>
    <trip id="bus3" type="bus_bus" depart="5.29" departLane="best" departSpeed="max" from="808611047" to="-477151469#5"/>
    <trip id="bus4" type="bus_bus" depart="7.05" departLane="best" from="420351721#0" to="-226040985#1"/>
    <trip id="bus6" type="bus_bus" depart="10.57" departLane="best" departSpeed="max" from="-221686901#8" to="1050255675#2"/>
    <trip id="bus7" type="bus_bus" depart="12.33" departLane="best" from="560788342#0" to="46348767#3"/>
    <trip id="bus8" type="bus_bus" depart="14.09" departLane="best" departSpeed="max" from="5680990#0" to="-1080978586#0"/>
    <trip id="bus9" type="bus_bus" depart="15.86" departLane="best" from="5680339#1" to="5671202#0-AddedOffRampEdge"/>
    <trip id="bus10" type="bus_bus" depart="17.62" departLane="best" from="25167069#0" to="-847917993#1"/>
    <trip id="bus11" type="bus_bus" depart="19.38" departLane="best" from="955237974#0" to="25167210#3"/>
    <trip id="bus12" type="bus_bus" depart="21.14" departLane="best" from="-496978219#2" to="-5669892#12"/>
    <trip id="bus13" type="bus_bus" depart="22.90" departLane="best" from="662161062#0" to="481403101#0"/>
    <trip id="bus14" type="bus_bus" depart="24.67" departLane="best" from="5680862#3" to="5672803#0"/>
    <trip id="bus15" type="bus_bus" depart="26.43" departLane="best" from="46201668#7" to="963576912"/>
    <trip id="bus16" type="bus_bus" depart="28.19" departLane="best" from="352705238#2" to="464169428#24"/>
    <trip id="bus17" type="bus_bus" depart="29.95" departLane="best" from="706833044#8" to="46817509#0"/>
    <trip id="bus18" type="bus_bus" depart="31.71" departLane="best" from="5671339#6" to="-273792988#2"/>
    <trip id="bus19" type="bus_bus" depart="33.47" departLane="best" from="1111914323#1" to="221607740#0"/>
    <trip id="bus20" type="bus_bus" depart="35.24" departLane="best" from="-46334605#2" to="125528659#0"/>
    <trip id="bus21" type="bus_bus" depart="37.00" departLane="best" from="-560788342#3" to="198924605#4"/>
    <trip id="bus22" type="bus_bus" depart="38.76" departLane="best" from="526839040#1" to="311764602#0"/>
    <trip id="bus23" type="bus_bus" depart="40.52" departLane="best" from="194923776#0" to="895349521#0"/>
    <trip id="bus24" type="bus_bus" depart="42.28" departLane="best" departSpeed="max" from="559907542#0" to="492148701#0"/>
    <trip id="bus25" type="bus_bus" depart="44.05" departLane="best" from="1003466062#0" to="5672715#0"/>
    <trip id="bus28" type="bus_bus" depart="49.33" departLane="best" departSpeed="max" from="46610726#0" to="5670703#0"/>
    <trip id="bus29" type="bus_bus" depart="51.09" departLane="best" from="653471090#0" to="5678940#9"/>
    <trip id="bus30" type="bus_bus" depart="52.85" departLane="best" from="111826111#3" to="-226193929#8"/>
    <trip id="bus31" type="bus_bus" depart="54.62" departLane="best" departSpeed="max" from="227074775#0" to="195743229#0"/>
    <trip id="bus32" type="bus_bus" depart="56.38" departLane="best" from="1080319437#0" to="912475761#0"/>
    <trip id="bus33" type="bus_bus" depart="58.14" departLane="best" from="773869139#0" to="22898269#3"/>
    <trip id="bus34" type="bus_bus" depart="59.90" departLane="best" from="5669633#3" to="39972830-AddedOnRampEdge"/>
    <trip id="bus35" type="bus_bus" depart="61.66" departLane="best" from="835694480#0" to="421823986#0"/>
    <trip id="bus36" type="bus_bus" depart="63.42" departLane="best" from="194923762#0" to="157019568#5"/>
    <trip id="bus37" type="bus_bus" depart="65.19" departLane="best" from="46819912" to="813024440#0"/>
    <trip id="bus38" type="bus_bus" depart="66.95" departLane="best" departSpeed="max" from="40117454#0" to="1098561545"/>
    <trip id="bus39" type="bus_bus" depart="68.71" departLane="best" from="993797876#4" to="46139048#0"/>
    <trip id="bus40" type="bus_bus" depart="70.47" departLane="best" departSpeed="max" from="-483140980#3" to="-276670360#3"/>
    <trip id="bus41" type="bus_bus" depart="72.23" departLane="best" from="-5671713#2" to="524388531#0"/>
    <trip id="bus42" type="bus_bus" depart="74.00" departLane="best" from="5679141#3" to="420354141#0"/>
    <trip id="bus43" type="bus_bus" depart="75.76" departLane="best" departSpeed="max" from="-455201237" to="373857803#0"/>
    <trip id="bus44" type="bus_bus" depart="77.52" departLane="best" from="993795184" to="46166212#0"/>
    <trip id="bus45" type="bus_bus" depart="79.28" departLane="best" from="963551149" to="730300445#6"/>
    <trip id="bus46" type="bus_bus" depart="81.04" departLane="best" from="-157019562#5" to="5672187#0"/>
    <trip id="bus47" type="bus_bus" depart="82.80" departLane="best" from="5670574#0" to="46201677#6"/>
    <trip id="bus48" type="bus_bus" depart="84.57" departLane="best" departSpeed="max" from="-5672148#4" to="420629990#0"/>
    <trip id="bus49" type="bus_bus" depart="86.33" departLane="best" from="420888144#0" to="955261512#0"/>
    <trip id="bus50" type="bus_bus" depart="88.09" departLane="best" from="770524299#0" to="194923796#0"/>
    <trip id="bus51" type="bus_bus" depart="89.85" departLane="best" from="459865906#0" to="1021949724#0"/>
    <trip id="bus53" type="bus_bus" depart="93.38" departLane="best" from="221687795" to="539024460#2"/>
    <trip id="bus54" type="bus_bus" depart="95.14" departLane="best" from="485165667#0" to="-839968915"/>
    <trip id="bus55" type="bus_bus" depart="96.90" departLane="best" departSpeed="max" from="5677002#0" to="462421592#0"/>
    <trip id="bus56" type="bus_bus" depart="98.66" departLane="best" from="5678368#1" to="46171878#4"/>
    <trip id="bus57" type="bus_bus" depart="100.42" departLane="best" from="-1007837779#2" to="23168567#1"/>
    <trip id="bus58" type="bus_bus" depart="102.18" departLane="best" from="-198924568#5" to="847932330#0"/>
    <trip id="bus59" type="bus_bus" depart="103.95" departLane="best" from="799407328#11" to="626315789#0"/>
    <trip id="bus60" type="bus_bus" depart="105.71" departLane="best" from="223185218#1" to="-420526338#2"/>
    <trip id="bus61" type="bus_bus" depart="107.47" departLane="best" from="797654746" to="944692441#0"/>
    <trip id="bus62" type="bus_bus" depart="109.23" departLane="best" from="-46863502#10" to="446864091#7"/>
    <trip id="bus63" type="bus_bus" depart="110.99" departLane="best" from="-46154337#3" to="5677574#0"/>
    <trip id="bus64" type="bus_bus" depart="112.76" departLane="best" departSpeed="max" from="5677229#0" to="-5681879#0"/>
    <trip id="bus65" type="bus_bus" depart="114.52" departLane="best" departSpeed="max" from="438388090" to="464169408#0"/>
    <trip id="bus66" type="bus_bus" depart="116.28" departLane="best" from="194923763#0" to="799407328#14"/>
    <trip id="bus67" type="bus_bus" depart="118.04" departLane="best" from="420352243#0" to="1080978589#0"/>
    <trip id="bus68" type="bus_bus" depart="119.80" departLane="best" from="463035843#0" to="5672871#0"/>
    <trip id="bus69" type="bus_bus" depart="121.56" departLane="best" from="1050255675#2" to="227064557"/>
    <trip id="bus70" type="bus_bus" depart="123.33" departLane="best" from="992141077#9" to="5668999#3"/>
    <trip id="bus71" type="bus_bus" depart="125.09" departLane="best" from="420629979#0" to="46154330#3"/>
    <trip id="bus72" type="bus_bus" depart="126.85" departLane="best" from="-5680319#5" to="111826111#3"/>
    <trip id="bus73" type="bus_bus" depart="128.61" departLane="best" departSpeed="max" from="250267912#0" to="46863448#0"/>
    <trip id="bus74" type="bus_bus" depart="130.37" departLane="best" from="-46160404#3" to="525656852#0"/>
    <trip id="bus75" type="bus_bus" depart="132.14" departLane="best" from="111826111#3" to="825868574#0"/>
    <trip id="bus76" type="bus_bus" depart="133.90" departLane="best" departSpeed="max" from="697704858#0" to="-46141498"/>
    <trip id="bus77" type="bus_bus" depart="135.66" departLane="best" from="125527384" to="5670092#32"/>
    <trip id="bus78" type="bus_bus" depart="137.42" departLane="best" from="1080978581" to="-584971525#15"/>
    <trip id="bus79" type="bus_bus" depart="139.18" departLane="best" from="847939167#0" to="46816995#2"/>
    <trip id="bus80" type="bus_bus" depart="140.94" departLane="best" from="438363729#0" to="5680142#12"/>
    <trip id="bus81" type="bus_bus" depart="142.71" departLane="best" from="5680862#6" to="1036714796#0"/>
    <trip id="bus82" type="bus_bus" depart="144.47" departLane="best" departSpeed="max" from="-529713036#6" to="420629940#0"/>
    <trip id="bus83" type="bus_bus" depart="146.23" departLane="best" from="420352246#0" to="433124968#10"/>
    <trip id="bus84" type="bus_bus" depart="147.99" departLane="best" from="5672409#6" to="5670267#0"/>
    <trip id="bus85" type="bus_bus" depart="149.75" departLane="best" from="978431658#0" to="-5670510#3"/>
    <trip id="bus86" type="bus_bus" depart="151.51" departLane="best" from="706833044#8" to="160309051#2"/>
    <trip id="bus87" type="bus_bus" depart="153.28" departLane="best" from="1032502935#0" to="420884524"/>
    <trip id="bus88" type="bus_bus" depart="155.04" departLane="best" from="420351721#0" to="198924634#3"/>
    <trip id="bus89" type="bus_bus" depart="156.80" departLane="best" from="420809421" to="733432852#21"/>
    <trip id="bus90" type="bus_bus" depart="158.56" departLane="best" from="464169428#6" to="-397839400#3"/>
    <trip id="bus91" type="bus_bus" depart="160.32" departLane="best" from="993797893#0" to="655255187#0"/>
    <trip id="bus92" type="bus_bus" depart="162.09" departLane="best" from="959708349" to="847920890#0"/>
    <trip id="bus93" type="bus_bus" depart="163.85" departLane="best" from="669685948#0" to="-991205021#2"/>
    <trip id="bus95" type="bus_bus" depart="167.37" departLane="best" from="40174797#0" to="-420886410"/>
    <trip id="bus96" type="bus_bus" depart="169.13" departLane="best" from="356140737#0" to="980927703#1"/>
    <trip id="bus97" type="bus_bus" depart="170.89" departLane="best" from="194923763#0" to="5680085#2"/>
    <trip id="bus98" type="bus_bus" depart="172.66" departLane="best" from="420888154" to="420355076#0"/>
    <trip id="bus99" type="bus_bus" depart="174.42" departLane="best" from="955237974#0" to="993797873#0"/>
    <trip id="bus100" type="bus_bus" depart="176.18" departLane="best" from="46608205#0" to="5672129#0"/>
    <trip id="bus101" type="bus_bus" depart="177.94" departLane="best" from="-825875766" to="221686901#3"/>
    <trip id="bus102" type="bus_bus" depart="179.70" departLane="best" from="959159711" to="46817511#3"/>
    <trip id="bus103" type="bus_bus" depart="181.47" departLane="best" from="46332307#0" to="5673867"/>
    <trip id="bus104" type="bus_bus" depart="183.23" departLane="best" from="-42786502#2" to="46835368#0"/>
    <trip id="bus105" type="bus_bus" depart="184.99" departLane="best" from="46116314#0" to="68668559#6"/>
    <trip id="bus106" type="bus_bus" depart="186.75" departLane="best" from="-845781907#5" to="957085298"/>
    <trip id="bus107" type="bus_bus" depart="188.51" departLane="best" from="-46348787#4" to="1032453060#0"/>
    <trip id="bus108" type="bus_bus" depart="190.27" departLane="best" from="46863518#3" to="5670418#4"/>
    <trip id="bus109" type="bus_bus" depart="192.04" departLane="best" from="124814435#0" to="-5679155#2"/>
    <trip id="bus110" type="bus_bus" depart="193.80" departLane="best" from="806341217" to="157019568#2"/>
    <trip id="bus111" type="bus_bus" depart="195.56" departLane="best" from="46863514#3" to="497191099#0"/>
    <trip id="bus112" type="bus_bus" depart="197.32" departLane="best" from="414751576#0" to="46819926#0"/>
    <trip id="bus113" type="bus_bus" depart="199.08" departLane="best" from="46160225#5" to="875360680#0"/>
    <trip id="bus114" type="bus_bus" depart="200.85" departLane="best" from="1053552023" to="5672006#0"/>
    <trip id="bus115" type="bus_bus" depart="202.61" departLane="best" from="127691870" to="39972830-AddedOnRampEdge"/>
    <trip id="bus116" type="bus_bus" depart="204.37" departLane="best" from="5670092#7" to="221694586#0"/>
    <trip id="bus117" type="bus_bus" depart="206.13" departLane="best" departSpeed="max" from="227074775#0" to="5676457#0"/>
    <trip id="bus118" type="bus_bus" depart="207.89" departLane="best" from="-46165816" to="421821927#0"/>
    <trip id="bus119" type="bus_bus" depart="209.65" departLane="best" departSpeed="max" from="-46165819#1" to="1081824061#0"/>
    <trip id="bus120" type="bus_bus" depart="211.42" departLane="best" from="194923763#0" to="849942510#3"/>
    <trip id="bus121" type="bus_bus" depart="213.18" departLane="best" from="799480720#5" to="805465679#18"/>
    <trip id="bus122" type="bus_bus" depart="214.94" departLane="best" from="32922457" to="-905906566"/>
    <trip id="bus123" type="bus_bus" depart="216.70" departLane="best" from="587355762#7" to="5671404#0"/>
    <trip id="bus124" type="bus_bus" depart="218.46" departLane="best" from="495946403#0" to="981500699#3"/>
    <trip id="bus125" type="bus_bus" depart="220.23" departLane="best" from="5681728#0" to="221689139#0"/>
    <trip id="bus126" type="bus_bus" depart="221.99" departLane="best" departSpeed="max" from="5669962#0" to="904809348#0"/>
    <trip id="bus127" type="bus_bus" depart="223.75" departLane="best" from="-591772210#5" to="-5677958"/>
    <trip id="bus128" type="bus_bus" depart="225.51" departLane="best" departSpeed="max" from="-5670512#4" to="464169428#30"/>
    <trip id="bus129" type="bus_bus" depart="227.27" departLane="best" from="195743227#0" to="483140980#2"/>
    <trip id="bus130" type="bus_bus" depart="229.03" departLane="best" departSpeed="max" from="5671754#0" to="1067440051#2"/>
    <trip id="bus131" type="bus_bus" depart="230.80" departLane="best" from="525698215#0" to="194923810#3"/>
    <trip id="bus132" type="bus_bus" depart="232.56" departLane="best" from="446864091#10" to="825868574#0"/>
    <trip id="bus133" type="bus_bus" depart="234.32" departLane="best" departSpeed="max" from="655499757#0" to="-525038147#2"/>
    <trip id="bus134" type="bus_bus" depart="236.08" departLane="best" from="420352246#0" to="198924579#3"/>
    <trip id="bus135" type="bus_bus" depart="237.84" departLane="best" from="-1080319438#2" to="5678759#1"/>
    <trip id="bus136" type="bus_bus" depart="239.61" departLane="best" from="531546246" to="194923778#0"/>
    <trip id="bus137" type="bus_bus" depart="241.37" departLane="best" from="5672988#0" to="464169428#18"/>
    <trip id="bus138" type="bus_bus" depart="243.13" departLane="best" from="420358888#0" to="-1087974362#1"/>
    <trip id="bus139" type="bus_bus" depart="244.89" departLane="best" from="-46166212#1" to="805465682#0"/>
    <trip id="bus140" type="bus_bus" depart="246.65" departLane="best" from="813956618#0" to="46348790#0"/>
    <trip id="bus143" type="bus_bus" depart="251.94" departLane="best" from="226041016#3" to="813956617#21"/>
    <trip id="bus144" type="bus_bus" depart="253.70" departLane="best" from="5679180#3" to="730300445#6"/>
    <trip id="bus145" type="bus_bus" depart="255.46" departLane="best" from="812965805#9" to="1080978583#0"/>
    <trip id="bus146" type="bus_bus" depart="257.22" departLane="best" from="157012398#0" to="-5671307#1"/>
    <trip id="bus148" type="bus_bus" depart="260.75" departLane="best" from="-825875764#1" to="847932924#0"/>
    <trip id="bus149" type="bus_bus" depart="262.51" departLane="best" from="727644280#3" to="964220270#0"/>
    <trip id="bus150" type="bus_bus" depart="264.27" departLane="best" from="-221607739" to="5672973#0"/>
    <trip id="bus151" type="bus_bus" depart="266.03" departLane="best" from="239625022" to="847939167#0"/>
    <trip id="bus152" type="bus_bus" depart="267.79" departLane="best" from="5680167#2" to="75311776#0"/>
    <trip id="bus153" type="bus_bus" depart="269.56" departLane="best" from="5680990#2" to="195743225#0"/>
    <trip id="bus154" type="bus_bus" depart="271.32" departLane="best" from="5678940#0" to="-5672646#8"/>
    <trip id="bus155" type="bus_bus" depart="273.08" departLane="best" from="75311776#0" to="727644280#0"/>
    <trip id="bus156" type="bus_bus" depart="274.84" departLane="best" from="1088547050#2" to="587067511#0"/>
    <trip id="bus157" type="bus_bus" depart="276.60" departLane="best" from="421821533#0" to="222299272#0"/>
    <trip id="bus158" type="bus_bus" depart="278.36" departLane="best" from="5679180#0" to="116672642#2"/>
    <trip id="bus159" type="bus_bus" depart="280.13" departLane="best" from="-221607365#7" to="1038787431#0"/>
    <trip id="bus160" type="bus_bus" depart="281.89" departLane="best" from="23168559#5" to="75311776#1"/>
    <trip id="bus161" type="bus_bus" depart="283.65" departLane="best" from="958188025" to="198924660#13"/>
    <trip id="bus162" type="bus_bus" depart="285.41" departLane="best" from="541336911#0" to="40709928#0"/>
    <trip id="bus163" type="bus_bus" depart="287.17" departLane="best" from="968737541#6" to="46201668#7"/>
    <trip id="bus164" type="bus_bus" depart="288.94" departLane="best" from="889627470#0" to="-5677958"/>
    <trip id="bus165" type="bus_bus" depart="290.70" departLane="best" from="962156559#2" to="1021949723#0"/>
    <trip id="bus166" type="bus_bus" depart="292.46" departLane="best" departSpeed="max" from="956944192#0" to="195743179#6"/>
    <trip id="bus167" type="bus_bus" depart="294.22" departLane="best" from="-5671197#5" to="420629990#0"/>
    <trip id="bus168" type="bus_bus" depart="295.98" departLane="best" from="5672402#2" to="227074782#0"/>
    <trip id="bus169" type="bus_bus" depart="297.74" departLane="best" from="480972178#0" to="46141630#12"/>
    <trip id="bus170" type="bus_bus" depart="299.51" departLane="best" from="384898122#2" to="46817495#0"/>
    <trip id="bus171" type="bus_bus" depart="301.27" departLane="best" from="160309051#1" to="5671593"/>
    <trip id="bus172" type="bus_bus" depart="303.03" departLane="best" from="-1015379881" to="847873803#0"/>
    <trip id="bus174" type="bus_bus" depart="306.55" departLane="best" from="5673073#0" to="5670172#0"/>
    <trip id="bus175" type="bus_bus" depart="308.32" departLane="best" from="276670360#0" to="-460624363#2"/>
    <trip id="bus176" type="bus_bus" depart="310.08" departLane="best" from="5669962#1" to="239629079#0"/>
    <trip id="bus177" type="bus_bus" depart="311.84" departLane="best" from="227064559#0" to="68523775#0"/>
    <trip id="bus178" type="bus_bus" depart="313.60" departLane="best" from="5671928#0" to="221694586#2"/>
    <trip id="bus179" type="bus_bus" depart="315.36" departLane="best" from="226193928#0" to="413050334#6"/>
    <trip id="bus180" type="bus_bus" depart="317.12" departLane="best" from="40709921#0" to="221686901#3"/>
    <trip id="bus181" type="bus_bus" depart="318.89" departLane="best" departSpeed="max" from="-573838648" to="420352244#0"/>
    <trip id="bus182" type="bus_bus" depart="320.65" departLane="best" from="902704753#0" to="5670512#3"/>
    <trip id="bus183" type="bus_bus" depart="322.41" departLane="best" from="813956617#21" to="496982789#0"/>
    <trip id="bus184" type="bus_bus" depart="324.17" departLane="best" from="221694589" to="46350695#0"/>
    <trip id="bus185" type="bus_bus" depart="325.93" departLane="best" from="-1007811374#1" to="221607365#3"/>
    <trip id="bus186" type="bus_bus" depart="327.70" departLane="best" from="420358898#3" to="46817515#0"/>
    <trip id="bus188" type="bus_bus" depart="331.22" departLane="best" from="438366913#0" to="814840327"/>
    <trip id="bus189" type="bus_bus" depart="332.98" departLane="best" from="5679180#3" to="1004369133#0"/>
    <trip id="bus190" type="bus_bus" depart="334.74" departLane="best" from="-46819503" to="46154300#0"/>
    <trip id="bus191" type="bus_bus" depart="336.50" departLane="best" from="525656841#0" to="25166922#0"/>
    <trip id="bus192" type="bus_bus" depart="338.27" departLane="best" from="5681879#1" to="5676045"/>
    <trip id="bus193" type="bus_bus" depart="340.03" departLane="best" from="5670172#3" to="111826111#3"/>
    <trip id="bus194" type="bus_bus" depart="341.79" departLane="best" from="1043517682" to="-198924605#3"/>
    <trip id="bus195" type="bus_bus" depart="343.55" departLane="best" from="154513049#3" to="439842823#0"/>
    <trip id="bus196" type="bus_bus" depart="345.31" departLane="best" from="671201389#0" to="-46154337#3"/>
    <trip id="bus197" type="bus_bus" depart="347.07" departLane="best" from="1036771935#0" to="5671172#0"/>
    <trip id="bus198" type="bus_bus" depart="348.84" departLane="best" from="452339696" to="157012387#0"/>
    <trip id="bus199" type="bus_bus" depart="350.60" departLane="best" from="5669662#0" to="-1080978584#0"/>
    <trip id="bus201" type="bus_bus" depart="354.12" departLane="best" departSpeed="max" from="-5670512#4" to="420358890#0"/>
    <trip id="bus202" type="bus_bus" depart="355.88" departLane="best" from="1015939516#0" to="956944191"/>
    <trip id="bus203" type="bus_bus" depart="357.65" departLane="best" from="46154296#5" to="-397839400#10"/>
    <trip id="bus204" type="bus_bus" depart="359.41" departLane="best" from="157012386#7" to="68523775#0"/>
    <trip id="bus205" type="bus_bus" depart="361.17" departLane="best" from="420895282#0" to="5681925#0"/>
    <trip id="bus206" type="bus_bus" depart="362.93" departLane="best" from="5670084#0" to="981500700#0"/>
    <trip id="bus207" type="bus_bus" depart="364.69" departLane="best" from="46863522#0" to="954310592"/>
    <trip id="bus208" type="bus_bus" depart="366.45" departLane="best" departSpeed="max" from="808611047" to="496980200#6"/>
    <trip id="bus209" type="bus_bus" depart="368.22" departLane="best" from="5671920#0" to="46139033#0"/>
    <trip id="bus210" type="bus_bus" depart="369.98" departLane="best" from="587038049#0" to="46350695#0"/>
    <trip id="bus211" type="bus_bus" depart="371.74" departLane="best" from="812965805#21" to="5673211#0"/>
    <trip id="bus212" type="bus_bus" depart="373.50" departLane="best" departSpeed="max" from="438388090" to="194923761#0"/>
    <trip id="bus213" type="bus_bus" depart="375.26" departLane="best" from="157012386#10" to="536917120#0"/>
    <trip id="bus214" type="bus_bus" depart="377.03" departLane="best" departSpeed="max" from="5677229#0" to="46160365#0"/>
    <trip id="bus215" type="bus_bus" depart="378.79" departLane="best" departSpeed="max" from="-462421592#2" to="221605487#0"/>
    <trip id="bus216" type="bus_bus" depart="380.55" departLane="best" from="195743225#0" to="22927873#0"/>
    <trip id="bus217" type="bus_bus" depart="382.31" departLane="best" from="46332295#7" to="-655255187#9"/>
    <trip id="bus219" type="bus_bus" depart="385.83" departLane="best" from="5671404#0" to="-440681436#3"/>
    <trip id="bus220" type="bus_bus" depart="387.60" departLane="best" from="413217631#0" to="1080319439#0"/>
    <trip id="bus221" type="bus_bus" depart="389.36" departLane="best" from="414894542#1" to="825868574#0"/>
    <trip id="bus222" type="bus_bus" depart="391.12" departLane="best" from="46819510" to="5671140#3"/>
    <trip id="bus223" type="bus_bus" depart="392.88" departLane="best" from="68668539#7" to="5677924#0"/>
    <trip id="bus224" type="bus_bus" depart="394.64" departLane="best" departSpeed="max" from="357279521" to="-1080978584#1"/>
    <trip id="bus225" type="bus_bus" depart="396.41" departLane="best" from="256902825#0" to="5676656#9"/>
    <trip id="bus226" type="bus_bus" depart="398.17" departLane="best" departSpeed="max" from="68523779" to="955261511#0"/>
    <trip id="bus227" type="bus_bus" depart="399.93" departLane="best" from="414751458#0" to="5673619#0"/>
    <trip id="bus228" type="bus_bus" depart="401.69" departLane="best" from="46350707#0" to="480972178#0"/>
    <trip id="bus230" type="bus_bus" depart="405.21" departLane="best" from="420629955#0" to="-221686900#2"/>
    <trip id="bus231" type="bus_bus" depart="406.98" departLane="best" from="24263967#2" to="5670532#0"/>
    <trip id="bus232" type="bus_bus" depart="408.74" departLane="best" from="40712688#9" to="-963576929#0"/>
    <trip id="bus234" type="bus_bus" depart="412.26" departLane="best" from="497191099#0" to="-221607365#2"/>
    <trip id="bus235" type="bus_bus" depart="414.02" departLane="best" from="39662323#0" to="466956276#0"/>
    <trip id="bus236" type="bus_bus" depart="415.79" departLane="best" from="-226040986#1" to="543897624#4"/>
    <trip id="bus237" type="bus_bus" depart="417.55" departLane="best" from="-630828592#1" to="421827960#0"/>
    <trip id="bus238" type="bus_bus" depart="419.31" departLane="best" from="-40117454#5" to="357946354#6"/>
    <trip id="bus239" type="bus_bus" depart="421.07" departLane="best" from="1080873865" to="239625022"/>
    <trip id="bus240" type="bus_bus" depart="422.83" departLane="best" from="5676939#0" to="357946354#6"/>
    <trip id="bus241" type="bus_bus" depart="424.59" departLane="best" from="5673619#0" to="630828592#2"/>
    <trip id="bus242" type="bus_bus" depart="426.36" departLane="best" departSpeed="max" from="157019571#0" to="-46817001#2"/>
    <trip id="bus243" type="bus_bus" depart="428.12" departLane="best" from="-198924568#2" to="462421592#0"/>
    <trip id="bus245" type="bus_bus" depart="431.64" departLane="best" from="560788342#4" to="5679242#0"/>
    <trip id="bus246" type="bus_bus" depart="433.40" departLane="best" from="5668983#0" to="5676877#2"/>
    <trip id="bus247" type="bus_bus" depart="435.17" departLane="best" from="944283073#0" to="1051550982#0"/>
    <trip id="bus248" type="bus_bus" depart="436.93" departLane="best" from="-198924605#3" to="-837450655"/>
    <trip id="bus249" type="bus_bus" depart="438.69" departLane="best" from="-5681675#1" to="5670092#4"/>
    <trip id="bus250" type="bus_bus" depart="440.45" departLane="best" from="467222812#4" to="1091757184"/>
    <trip id="bus251" type="bus_bus" depart="442.21" departLane="best" from="5671172#2" to="5678062"/>
    <trip id="bus252" type="bus_bus" depart="443.97" departLane="best" departSpeed="max" from="-963576929#1" to="485165667#0"/>
    <trip id="bus253" type="bus_bus" depart="445.74" departLane="best" from="5673342#0" to="-5677229#2"/>
    <trip id="bus254" type="bus_bus" depart="447.50" departLane="best" from="5682012#0" to="959024723"/>
    <trip id="bus255" type="bus_bus" depart="449.26" departLane="best" from="-5671197#3" to="-220464708#2"/>
    <trip id="bus256" type="bus_bus" depart="451.02" departLane="best" from="226193933#12" to="5670512#3"/>
    <trip id="bus257" type="bus_bus" depart="452.78" departLane="best" from="955261513#0" to="40336500"/>
    <trip id="bus258" type="bus_bus" depart="454.54" departLane="best" from="5671661#3" to="-46165816"/>
    <trip id="bus259" type="bus_bus" depart="456.31" departLane="best" from="5670814#9" to="524387551#6"/>
    <trip id="bus260" type="bus_bus" depart="458.07" departLane="best" from="-561084838#2" to="5678929#12"/>
    <trip id="bus261" type="bus_bus" depart="459.83" departLane="best" from="675967321#3" to="480112483#0"/>
    <trip id="bus262" type="bus_bus" depart="461.59" departLane="best" from="-5680319#5" to="978431658#0"/>
    <trip id="bus264" type="bus_bus" depart="465.12" departLane="best" from="420358892#0" to="32936385#1"/>
    <trip id="bus265" type="bus_bus" depart="466.88" departLane="best" from="46137554#0" to="25561967"/>
    <trip id="bus267" type="bus_bus" depart="470.40" departLane="best" from="-5670238#2" to="957085298"/>
    <trip id="bus268" type="bus_bus" depart="472.16" departLane="best" from="526839040#1" to="612740333#1"/>
    <trip id="bus269" type="bus_bus" depart="473.92" departLane="best" departSpeed="max" from="5671429#0" to="420809408#0"/>
    <trip id="bus270" type="bus_bus" depart="475.69" departLane="best" from="5672871#12" to="959041299"/>
    <trip id="bus271" type="bus_bus" depart="477.45" departLane="best" from="195743179#1" to="573838648"/>
    <trip id="bus272" type="bus_bus" depart="479.21" departLane="best" from="46224832#3" to="440681436#0"/>
    <trip id="bus273" type="bus_bus" depart="480.97" departLane="best" from="420629950#0" to="5672871#9"/>