<?xml version="1.0" encoding="utf-8"?>
<!-- generated on 2022-10-28 10:53:28.088451 by osmWebWizard.py UNKNOWN
<configuration>
    <allow-fringe.min-length value="1000.0"/>
    <end value="3600"/>
    <fringe-factor value="5.0"/>
    <fringe-start-attributes value="departSpeed=&quot;max&quot;"/>
    <lanes value="True"/>
    <min-distance value="300.0"/>
    <net-file value="/Users/hjalte/2022-10-28-10-53-12/osm.net.xml"/>
    <period value="2.20879471373579"/>
    <route-file value="/Users/hjalte/2022-10-28-10-53-12/osm.passenger.rou.xml"/>
    <trip-attributes value="departLane=&quot;best&quot;"/>
    <output-trip-file value="/Users/hjalte/2022-10-28-10-53-12/osm.passenger.trips.xml"/>
    <prefix value="veh"/>
    <validate value="True"/>
    <vehicle-class value="passenger"/>
</configuration>
-->
<!-- generated on 2022-10-28 10:53:27 by Eclipse SUMO duarouter Version 1.14.1
<configuration xmlns:xsi="http://www.w3.org/2001/XMLSchema-instance" xsi:noNamespaceSchemaLocation="http://sumo.dlr.de/xsd/duarouterConfiguration.xsd">

    <input>
        <net-file value="/Users/hjalte/2022-10-28-10-53-12/osm.net.xml"/>
        <route-files value="/Users/hjalte/2022-10-28-10-53-12/osm.passenger.trips.xml"/>
    </input>

    <output>
        <output-file value="/Users/hjalte/2022-10-28-10-53-12/osm.passenger.trips.xml.tmp"/>
        <alternatives-output value="NUL"/>
        <write-trips value="true"/>
    </output>

    <time>
        <begin value="0"/>
        <end value="3600"/>
    </time>

    <report>
        <no-warnings value="true"/>
        <ignore-errors value="true"/>
        <no-step-log value="true"/>
    </report>

</configuration>
-->
<routes xmlns:xsi="http://www.w3.org/2001/XMLSchema-instance" xsi:noNamespaceSchemaLocation="http://sumo.dlr.de/xsd/routes_file.xsd">
 <trip depart="0.00" departLane="best" departSpeed="max" from="27360374" id="veh0" to="-119371823#0" type="veh_petrol"/>
 <trip depart="2.21" departLane="best" from="-58700469#0" id="veh1" to="-364393486#3" type="veh_petrol"/>
 <trip depart="4.42" departLane="best" from="58700472#3" id="veh2" to="-1803902#1" type="veh_petrol"/>
 <trip depart="6.63" departLane="best" from="162064349#6" id="veh3" to="-132238377" type="veh_petrol"/>
 <trip depart="8.84" departLane="best" from="-330748689#0" id="veh4" to="1881441" type="veh_diesel"/>
 <trip depart="11.04" departLane="best" departSpeed="max" from="-119371823#1" id="veh5" to="-30343395#2" type="veh_diesel"/>
 <trip depart="13.25" departLane="best" from="2799049#3" id="veh6" to="207540450#2" type="veh_petrol"/>
 <trip depart="15.46" departLane="best" departSpeed="max" from="-330748689#1" id="veh7" to="24710258#0" type="veh_diesel"/>
 <trip depart="19.88" departLane="best" from="464798462" id="veh9" to="330694633#0" type="veh_petrol"/>
 <trip depart="22.09" departLane="best" departSpeed="max" from="-975053647#5" id="veh10" to="-27222513" type="veh_petrol"/>
 <trip depart="24.30" departLane="best" from="8122537#0" id="veh11" to="1022588990#1" type="veh_petrol"/>
 <trip depart="26.51" departLane="best" departSpeed="max" from="-1803907#1" id="veh12" to="-1810992#0" type="veh_hybrid"/>
 <trip depart="28.71" departLane="best" from="5073896#0" id="veh13" to="24823743#0" type="veh_hybrid"/>
 <trip depart="30.92" departLane="best" departSpeed="max" from="4785624#0" id="veh14" to="360156352" type="veh_diesel"/>
 <trip depart="33.13" departLane="best" from="230933568#0" id="veh15" to="83348744#9" type="veh_diesel"/>
 <trip depart="35.34" departLane="best" departSpeed="max" from="1095950436" id="veh16" to="237094961#0" type="veh_ev"/>
 <trip depart="37.55" departLane="best" from="497264718" id="veh17" to="27222519" type="veh_petrol"/>
 <trip depart="39.76" departLane="best" from="532535375#2" id="veh18" to="237232184#6" type="veh_petrol"/>
 <trip depart="41.97" departLane="best" from="3497839#0" id="veh19" to="-157991925#1" type="veh_petrol"/>
 <trip depart="44.18" departLane="best" departSpeed="max" from="-3497837#2" id="veh20" to="-788127490" type="veh_diesel"/>
 <trip depart="46.38" departLane="best" from="-1792955#0" id="veh21" to="-4316408#1" type="veh_petrol"/>
 <trip depart="50.80" departLane="best" from="1094548117" id="veh23" to="-330748689#0" type="veh_ev"/>
 <trip depart="53.01" departLane="best" from="-532535378#1" id="veh24" to="788127488" type="veh_petrol"/>
 <trip depart="55.22" departLane="best" from="2798744#0" id="veh25" to="27201302#1" type="veh_petrol"/>
 <trip depart="57.43" departLane="best" from="-27222523" id="veh26" to="360156352" type="veh_hybrid"/>
 <trip depart="59.64" departLane="best" from="-265592583#1" id="veh27" to="1103871818" type="veh_diesel"/>
 <trip depart="61.85" departLane="best" from="83840092#3" id="veh28" to="2799057#0" type="veh_hybrid"/>
 <trip depart="64.06" departLane="best" from="237232180#2" id="veh29" to="30791623#2" type="veh_petrol"/>
 <trip depart="66.26" departLane="best" departSpeed="max" from="502430976#0" id="veh30" to="420019665#0" type="veh_diesel"/>
 <trip depart="68.47" departLane="best" from="-351693646#1" id="veh31" to="-144234698#1" type="veh_diesel"/>
 <trip depart="70.68" departLane="best" from="-8122540#1" id="veh32" to="-572860135#1" type="veh_petrol"/>
 <trip depart="72.89" departLane="best" from="-30473724#2" id="veh33" to="788836631#0" type="veh_hybrid"/>
 <trip depart="75.10" departLane="best" from="555575817" id="veh34" to="-8122798#4" type="veh_hybrid"/>
 <trip depart="77.31" departLane="best" from="28612120#0" id="veh35" to="152853466#1" type="veh_petrol"/>
 <trip depart="79.52" departLane="best" from="741047136#1" id="veh36" to="1757741#0" type="veh_ev"/>
 <trip depart="81.73" departLane="best" from="-515290221" id="veh37" to="-48952321" type="veh_hybrid"/>
 <trip depart="83.93" departLane="best" from="237232184#11" id="veh38" to="-555575817" type="veh_petrol"/>
 <trip depart="88.35" departLane="best" from="153329972#1" id="veh40" to="-357762965#3" type="veh_petrol"/>
 <trip depart="90.56" departLane="best" from="-1803905" id="veh41" to="-157996444#2" type="veh_ev"/>
 <trip depart="92.77" departLane="best" departSpeed="max" from="-1880659" id="veh42" to="27282697" type="veh_petrol"/>
 <trip depart="94.98" departLane="best" from="4311696#0" id="veh43" to="162057867#1" type="veh_petrol"/>
 <trip depart="97.19" departLane="best" departSpeed="max" from="-174675649#9" id="veh44" to="119371823#1" type="veh_hybrid"/>
 <trip depart="99.40" departLane="best" from="956570844" id="veh45" to="1987823" type="veh_hybrid"/>
 <trip depart="101.60" departLane="best" from="8122800#0" id="veh46" to="549231467#1" type="veh_diesel"/>
 <trip depart="103.81" departLane="best" from="-1050242375#2" id="veh47" to="359163722#4" type="veh_hybrid"/>
 <trip depart="106.02" departLane="best" from="30473724#0" id="veh48" to="1995182#1" type="veh_petrol"/>
 <trip depart="108.23" departLane="best" from="-532535375#7" id="veh49" to="2799057#2" type="veh_petrol"/>
 <trip depart="110.44" departLane="best" from="-1881442" id="veh50" to="162078539#0" type="veh_hybrid"/>
 <trip depart="112.65" departLane="best" from="1757744#4" id="veh51" to="8122549" type="veh_petrol"/>
 <trip depart="114.86" departLane="best" from="1881442" id="veh52" to="-27360374" type="veh_hybrid"/>
 <trip depart="117.07" departLane="best" from="741047135#1" id="veh53" to="577311347#16" type="veh_ev"/>
 <trip depart="119.27" departLane="best" from="-751406917#1" id="veh54" to="2799055#0" type="veh_petrol"/>
 <trip depart="121.48" departLane="best" departSpeed="max" from="27201304#0" id="veh55" to="-27222509" type="veh_petrol"/>
 <trip depart="123.69" departLane="best" from="419983490#0" id="veh56" to="201994915#0" type="veh_petrol"/>
 <trip depart="125.90" departLane="best" from="420019665#1" id="veh57" to="1987825" type="veh_petrol"/>
 <trip depart="128.11" departLane="best" from="-1002168436" id="veh58" to="-946767471#1" type="veh_diesel"/>
 <trip depart="130.32" departLane="best" from="-1084623771" id="veh59" to="751406915" type="veh_hybrid"/>
 <trip depart="132.53" departLane="best" from="572860130" id="veh60" to="502430973" type="veh_diesel"/>
 <trip depart="134.74" departLane="best" from="-788543005#1" id="veh61" to="-168133324#0" type="veh_petrol"/>
 <trip depart="136.95" departLane="best" from="572860130" id="veh62" to="8122540#0" type="veh_petrol"/>
 <trip depart="139.15" departLane="best" departSpeed="max" from="-1803898#5" id="veh63" to="1810982#0" type="veh_hybrid"/>
 <trip depart="141.36" departLane="best" from="-1757740#3" id="veh64" to="419983452#0" type="veh_hybrid"/>
 <trip depart="143.57" departLane="best" from="419985023#0" id="veh65" to="-201994910#2" type="veh_petrol"/>
 <trip depart="145.78" departLane="best" from="1803902#0" id="veh66" to="230933568#1" type="veh_diesel"/>
 <trip depart="147.99" departLane="best" from="-515290221" id="veh67" to="577311347#9" type="veh_ev"/>
 <trip depart="150.20" departLane="best" from="162064349#9" id="veh68" to="-330748694#6" type="veh_petrol"/>
 <trip depart="152.41" departLane="best" from="237094962#0" id="veh69" to="360156352" type="veh_hybrid"/>
 <trip depart="154.62" departLane="best" from="-290453074#2" id="veh70" to="-8122602#0" type="veh_diesel"/>
 <trip depart="156.82" departLane="best" from="946767471#0" id="veh71" to="28612120#1" type="veh_petrol"/>
 <trip depart="159.03" departLane="best" from="1715109" id="veh72" to="1931229#0" type="veh_hybrid"/>
 <trip depart="161.24" departLane="best" from="-1881490#2" id="veh73" to="-3993672#1" type="veh_petrol"/>
 <trip depart="163.45" departLane="best" from="-946767471#2" id="veh74" to="246646896#0" type="veh_hybrid"/>
 <trip depart="165.66" departLane="best" from="-351693646#1" id="veh75" to="-357762965#3" type="veh_petrol"/>
 <trip depart="167.87" departLane="best" from="-1757744#3" id="veh76" to="27417066#0" type="veh_ev"/>
 <trip depart="170.08" departLane="best" from="-351693646#1" id="veh77" to="741047135#0" type="veh_petrol"/>
 <trip depart="172.29" departLane="best" departSpeed="max" from="527625586#0" id="veh78" to="-1757749#3" type="veh_hybrid"/>
 <trip depart="174.49" departLane="best" from="-419983456" id="veh79" to="290508516" type="veh_ev"/>
 <trip depart="176.70" departLane="best" departSpeed="max" from="-30791623#4" id="veh80" to="-207515926#1" type="veh_petrol"/>
 <trip depart="178.91" departLane="best" from="751406915" id="veh81" to="237232180#3" type="veh_petrol"/>
 <trip depart="181.12" departLane="best" from="1803898#0" id="veh82" to="420039037" type="veh_petrol"/>
 <trip depart="183.33" departLane="best" departSpeed="max" from="4785624#0" id="veh83" to="-28612121#14" type="veh_ev"/>
 <trip depart="185.54" departLane="best" from="-1810987#3" id="veh84" to="162064601#3" type="veh_hybrid"/>
 <trip depart="187.75" departLane="best" from="162064601#0" id="veh85" to="1792946#2" type="veh_hybrid"/>
 <trip depart="189.96" departLane="best" from="366013405#0" id="veh86" to="30189718" type="veh_hybrid"/>
 <trip depart="192.17" departLane="best" from="83348744#11" id="veh87" to="-1810993#1" type="veh_petrol"/>
 <trip depart="194.37" departLane="best" from="155813647#1" id="veh88" to="104700281" type="veh_hybrid"/>
 <trip depart="196.58" departLane="best" from="532535375#2" id="veh89" to="-496719502#1" type="veh_hybrid"/>
 <trip depart="198.79" departLane="best" departSpeed="max" from="-2799057#4" id="veh90" to="1750662#3" type="veh_petrol"/>
 <trip depart="203.21" departLane="best" from="-496719501#2" id="veh92" to="745633511#1" type="veh_diesel"/>
 <trip depart="205.42" departLane="best" from="1750662#4" id="veh93" to="549231467#1" type="veh_petrol"/>
 <trip depart="207.63" departLane="best" from="237204096#11" id="veh94" to="-162058550#1" type="veh_hybrid"/>
 <trip depart="209.84" departLane="best" from="978551519" id="veh95" to="5073896#6" type="veh_diesel"/>
 <trip depart="212.04" departLane="best" from="8122798#0" id="veh96" to="751406910#6" type="veh_petrol"/>
 <trip depart="214.25" departLane="best" from="513395774" id="veh97" to="-27282699#6" type="veh_hybrid"/>
 <trip depart="216.46" departLane="best" from="1810992#0" id="veh98" to="-351693646#1" type="veh_hybrid"/>
 <trip depart="218.67" departLane="best" from="153329976" id="veh99" to="-168133324#8" type="veh_petrol"/>
 <trip depart="220.88" departLane="best" from="-521622372#3" id="veh100" to="420039036#0" type="veh_petrol"/>
 <trip depart="223.09" departLane="best" from="1757748#1" id="veh101" to="162057867#1" type="veh_petrol"/>
 <trip depart="225.30" departLane="best" from="8122537#0" id="veh102" to="946767471#2" type="veh_petrol"/>
 <trip depart="227.51" departLane="best" from="237232180#0" id="veh103" to="359163722#0" type="veh_ev"/>
 <trip depart="229.71" departLane="best" departSpeed="max" from="-24710259#8" id="veh104" to="-788836632" type="veh_hybrid"/>
 <trip depart="231.92" departLane="best" from="8122797#1" id="veh105" to="237236398#0" type="veh_petrol"/>
 <trip depart="234.13" departLane="best" from="237099605" id="veh106" to="412767590#2" type="veh_diesel"/>
 <trip depart="236.34" departLane="best" departSpeed="max" from="-168121176#4" id="veh107" to="24612302#0" type="veh_hybrid"/>
 <trip depart="238.55" departLane="best" from="1881451" id="veh108" to="536177366#0" type="veh_hybrid"/>
 <trip depart="240.76" departLane="best" from="-24811189#1" id="veh109" to="8122798#4" type="veh_diesel"/>
 <trip depart="242.97" departLane="best" from="-1792955#1" id="veh110" to="-2799058#2" type="veh_petrol"/>
 <trip depart="245.18" departLane="best" departSpeed="max" from="24861648" id="veh111" to="30473724#0" type="veh_petrol"/>
 <trip depart="247.39" departLane="best" from="-360156354#2" id="veh112" to="-1931231#3" type="veh_petrol"/>
 <trip depart="249.59" departLane="best" departSpeed="max" from="58700472#0" id="veh113" to="-48952321" type="veh_diesel"/>
 <trip depart="251.80" departLane="best" departSpeed="max" from="24861648" id="veh114" to="27222521" type="veh_ev"/>
 <trip depart="254.01" departLane="best" from="162057867#1" id="veh115" to="2415206#4" type="veh_petrol"/>
 <trip depart="256.22" departLane="best" departSpeed="max" from="201631800#0" id="veh116" to="78328154#1" type="veh_petrol"/>
 <trip depart="258.43" departLane="best" departSpeed="max" from="-293452705#3" id="veh117" to="357792888" type="veh_hybrid"/>
 <trip depart="260.64" departLane="best" from="-419983497#1" id="veh118" to="153329971#0" type="veh_petrol"/>
 <trip depart="262.85" departLane="best" from="28612124#0" id="veh119" to="-797134489" type="veh_diesel"/>
 <trip depart="265.06" departLane="best" from="-8122547#0" id="veh120" to="419983441#1" type="veh_ev"/>
 <trip depart="267.26" departLane="best" from="-1757748#1" id="veh121" to="1757740#2" type="veh_hybrid"/>
 <trip depart="269.47" departLane="best" from="978548324#2" id="veh122" to="956570844" type="veh_diesel"/>
 <trip depart="271.68" departLane="best" from="-1757749#0" id="veh123" to="-331903816#3" type="veh_petrol"/>
 <trip depart="273.89" departLane="best" from="-521622372#3" id="veh124" to="777233099" type="veh_petrol"/>
 <trip depart="276.10" departLane="best" from="572860135#1" id="veh125" to="58700473#0" type="veh_petrol"/>
 <trip depart="278.31" departLane="best" departSpeed="max" from="1091239425#0" id="veh126" to="-27222519" type="veh_petrol"/>
 <trip depart="280.52" departLane="best" from="497264730#0" id="veh127" to="330748694#8" type="veh_hybrid"/>
 <trip depart="282.73" departLane="best" departSpeed="max" from="27222509" id="veh128" to="893729920#1" type="veh_petrol"/>
 <trip depart="284.93" departLane="best" from="2799062#0" id="veh129" to="-1065734933#1" type="veh_petrol"/>
 <trip depart="287.14" departLane="best" from="496717295#0" id="veh130" to="-797134489" type="veh_hybrid"/>
 <trip depart="289.35" departLane="best" from="28612120#21" id="veh131" to="788195863#2" type="veh_petrol"/>
 <trip depart="291.56" departLane="best" departSpeed="max" from="-1987823" id="veh132" to="-1881462#2" type="veh_petrol"/>
 <trip depart="293.77" departLane="best" from="-1880652#0" id="veh133" to="237094962#3" type="veh_petrol"/>
 <trip depart="295.98" departLane="best" from="-572860134#1" id="veh134" to="24823745#0" type="veh_ev"/>
 <trip depart="298.19" departLane="best" from="359163722#4" id="veh135" to="-30473724#14" type="veh_petrol"/>
 <trip depart="300.40" departLane="best" departSpeed="max" from="27360370" id="veh136" to="-558860534" type="veh_hybrid"/>
 <trip depart="302.60" departLane="best" from="1810996#2" id="veh137" to="741047135#0" type="veh_diesel"/>
 <trip depart="304.81" departLane="best" departSpeed="max" from="502430976#0" id="veh138" to="-1810986#2" type="veh_hybrid"/>
 <trip depart="309.23" departLane="best" departSpeed="max" from="-1022588990#2" id="veh140" to="419993035#0" type="veh_hybrid"/>
 <trip depart="311.44" departLane="best" departSpeed="max" from="27360372" id="veh141" to="-543567822" type="veh_hybrid"/>
 <trip depart="313.65" departLane="best" from="419969433" id="veh142" to="237094960" type="veh_ev"/>
 <trip depart="315.86" departLane="best" from="162064601#4" id="veh143" to="-1066507084" type="veh_petrol"/>
 <trip depart="318.07" departLane="best" from="-1757751#3" id="veh144" to="60929926" type="veh_hybrid"/>
 <trip depart="322.48" departLane="best" from="497264733" id="veh146" to="2415206#2" type="veh_diesel"/>
 <trip depart="324.69" departLane="best" from="-237193332" id="veh147" to="-201631800#1" type="veh_diesel"/>
 <trip depart="329.11" departLane="best" departSpeed="max" from="4316409#0" id="veh149" to="549231467#1" type="veh_diesel"/>
 <trip depart="331.32" departLane="best" from="660103919#1" id="veh150" to="-330748694#2" type="veh_diesel"/>
 <trip depart="333.53" departLane="best" from="-496719501#2" id="veh151" to="-1810999" type="veh_petrol"/>
 <trip depart="335.74" departLane="best" from="420039025" id="veh152" to="60929926" type="veh_petrol"/>
 <trip depart="337.95" departLane="best" from="157990331#8" id="veh153" to="27222526" type="veh_petrol"/>
 <trip depart="340.15" departLane="best" departSpeed="max" from="-24710259#8" id="veh154" to="751406915" type="veh_petrol"/>
 <trip depart="342.36" departLane="best" departSpeed="max" from="536177365#0" id="veh155" to="83840092#3" type="veh_petrol"/>
 <trip depart="346.78" departLane="best" departSpeed="max" from="-119371823#1" id="veh157" to="366013231#0" type="veh_ev"/>
 <trip depart="348.99" departLane="best" from="-8122939#4" id="veh158" to="755312621#0" type="veh_hybrid"/>
 <trip depart="351.20" departLane="best" from="464798406#1" id="veh159" to="558860532" type="veh_hybrid"/>
 <trip depart="355.62" departLane="best" from="420039038" id="veh161" to="-1880654#0" type="veh_petrol"/>
 <trip depart="357.82" departLane="best" departSpeed="max" from="545444991#0" id="veh162" to="549231467#1" type="veh_ev"/>
 <trip depart="360.03" departLane="best" from="-330748694#5" id="veh163" to="496723170#0" type="veh_petrol"/>
 <trip depart="362.24" departLane="best" from="1792946#2" id="veh164" to="-8122547#1" type="veh_petrol"/>
 <trip depart="364.45" departLane="best" departSpeed="max" from="4316409#0" id="veh165" to="-419983456" type="veh_petrol"/>
 <trip depart="366.66" departLane="best" from="-1107131062#2" id="veh166" to="-28998620#1" type="veh_petrol"/>
 <trip depart="368.87" departLane="best" from="-8122798#4" id="veh167" to="558860532" type="veh_hybrid"/>
 <trip depart="373.29" departLane="best" departSpeed="max" from="27413229#0" id="veh169" to="153329974#3" type="veh_hybrid"/>
 <trip depart="375.50" departLane="best" from="83348641#2" id="veh170" to="1995182#0" type="veh_petrol"/>
 <trip depart="377.70" departLane="best" from="777233099" id="veh171" to="-1881460" type="veh_ev"/>
 <trip depart="379.91" departLane="best" from="8122799" id="veh172" to="-27360374" type="veh_petrol"/>
 <trip depart="382.12" departLane="best" from="8122547#4" id="veh173" to="-572860133" type="veh_petrol"/>
 <trip depart="384.33" departLane="best" from="-1880654#1" id="veh174" to="162078539#0" type="veh_petrol"/>
 <trip depart="386.54" departLane="best" from="366013231#0" id="veh175" to="-8122797#1" type="veh_petrol"/>
 <trip depart="388.75" departLane="best" departSpeed="max" from="27201304#0" id="veh176" to="1881456" type="veh_petrol"/>
 <trip depart="390.96" departLane="best" departSpeed="max" from="125164983" id="veh177" to="237232184#5" type="veh_ev"/>
 <trip depart="393.17" departLane="best" from="-496723169#0" id="veh178" to="33790396#1" type="veh_diesel"/>
 <trip depart="395.37" departLane="best" from="-1022588990#0" id="veh179" to="751406910#4" type="veh_hybrid"/>
 <trip depart="397.58" departLane="best" from="237094960" id="veh180" to="359163722#3" type="veh_petrol"/>
 <trip depart="399.79" departLane="best" from="419983440#0" id="veh181" to="293452705#0" type="veh_petrol"/>
 <trip depart="402.00" departLane="best" from="1067190735#0" id="veh182" to="-1757749#0" type="veh_diesel"/>
 <trip depart="404.21" departLane="best" from="28612120#22" id="veh183" to="1018614217#0" type="veh_petrol"/>
 <trip depart="408.63" departLane="best" from="359287903" id="veh185" to="-797134489" type="veh_hybrid"/>
 <trip depart="410.84" departLane="best" from="155813647#1" id="veh186" to="-788543005#1" type="veh_petrol"/>
 <trip depart="413.04" departLane="best" departSpeed="max" from="-1966241#2" id="veh187" to="161663922#0" type="veh_diesel"/>
 <trip depart="415.25" departLane="best" from="78328154#1" id="veh188" to="30473724#13" type="veh_petrol"/>
 <trip depart="419.67" departLane="best" from="-784337790#2" id="veh190" to="229758123" type="veh_petrol"/>
 <trip depart="421.88" departLane="best" from="-1002168436" id="veh191" to="-751406917#1" type="veh_petrol"/>
 <trip depart="424.09" departLane="best" from="162077514#0" id="veh192" to="237236398#4" type="veh_petrol"/>
 <trip depart="426.30" departLane="best" from="2799539#2" id="veh193" to="1792944#0" type="veh_petrol"/>
 <trip depart="428.51" departLane="best" from="1750662#3" id="veh194" to="-351693646#1" type="veh_diesel"/>
 <trip depart="430.71" departLane="best" from="1803899#0" id="veh195" to="679005636#1" type="veh_diesel"/>
 <trip depart="432.92" departLane="best" departSpeed="max" from="4316409#0" id="veh196" to="-27360366" type="veh_petrol"/>
 <trip depart="435.13" departLane="best" from="-1803898#1" id="veh197" to="1881489#0" type="veh_petrol"/>
 <trip depart="437.34" departLane="best" departSpeed="max" from="27360368" id="veh198" to="1022588990#1" type="veh_ev"/>
 <trip depart="439.55" departLane="best" from="496719502#0" id="veh199" to="419983441#0" type="veh_diesel"/>
 <trip depart="441.76" departLane="best" from="290453074#0" id="veh200" to="-3993672#1" type="veh_diesel"/>
 <trip depart="443.97" departLane="best" from="-28612121#3" id="veh201" to="-1107131062#2" type="veh_petrol"/>
 <trip depart="448.39" departLane="best" from="514277851#1" id="veh203" to="-1792944#1" type="veh_petrol"/>
 <trip depart="450.59" departLane="best" from="158169135#0" id="veh204" to="27282699#4" type="veh_ev"/>
 <trip depart="452.80" departLane="best" departSpeed="max" from="-2799542#3" id="veh205" to="326635845" type="veh_petrol"/>
 <trip depart="457.22" departLane="best" from="28612120#0" id="veh207" to="-1051046549#2" type="veh_ev"/>
 <trip depart="459.43" departLane="best" from="419983452#0" id="veh208" to="419985023#0" type="veh_ev"/>
 <trip depart="461.64" departLane="best" from="-27222736" id="veh209" to="8122602#4" type="veh_petrol"/>
 <trip depart="463.85" departLane="best" from="1995180#1" id="veh210" to="-162057867#1" type="veh_petrol"/>
 <trip depart="468.26" departLane="best" from="1757749#3" id="veh212" to="464798462" type="veh_hybrid"/>
 <trip depart="470.47" departLane="best" from="28612121#14" id="veh213" to="899195855#0" type="veh_petrol"/>
 <trip depart="472.68" departLane="best" departSpeed="max" from="24861648" id="veh214" to="8122547#2" type="veh_hybrid"/>
 <trip depart="474.89" departLane="best" departSpeed="max" from="58700472#0" id="veh215" to="27222507#0" type="veh_petrol"/>
 <trip depart="477.10" departLane="best" from="359205989#1" id="veh216" to="1880659" type="veh_diesel"/>
 <trip depart="479.31" departLane="best" from="497264721#0" id="veh217" to="229758123" type="veh_ev"/>
 <trip depart="481.52" departLane="best" from="650297757" id="veh218" to="3993672#2" type="veh_petrol"/>
 <trip depart="483.73" departLane="best" from="1803901#2" id="veh219" to="-515290221" type="veh_petrol"/>
 <trip depart="488.14" departLane="best" from="419985023#0" id="veh221" to="1966241#1" type="veh_petrol"/>
 <trip depart="490.35" departLane="best" from="27282700" id="veh222" to="-58700472#1" type="veh_petrol"/>
 <trip depart="492.56" departLane="best" from="-1792948" id="veh223" to="-751406914#0" type="veh_petrol"/>
 <trip depart="494.77" departLane="best" from="-558860533" id="veh224" to="-8123093#1" type="veh_hybrid"/>
 <trip depart="496.98" departLane="best" from="237094962#3" id="veh225" to="-2400599#2" type="veh_petrol"/>
 <trip depart="499.19" departLane="best" from="-357113628#12" id="veh226" to="324096004" type="veh_petrol"/>
 <trip depart="501.40" departLane="best" from="351693646#0" id="veh227" to="-1755185#3" type="veh_petrol"/>
 <trip depart="503.61" departLane="best" from="157991925#2" id="veh228" to="207515926#2" type="veh_petrol"/>
 <trip depart="505.81" departLane="best" from="160328977#1" id="veh229" to="-30791623#0" type="veh_hybrid"/>
 <trip depart="508.02" departLane="best" from="162064349#1" id="veh230" to="737957639" type="veh_petrol"/>
 <trip depart="510.23" departLane="best" from="24815310#0" id="veh231" to="324096004" type="veh_petrol"/>
 <trip depart="512.44" departLane="best" departSpeed="max" from="527625586#0" id="veh232" to="419983470" type="veh_ev"/>
 <trip depart="514.65" departLane="best" from="1096432025" id="veh233" to="-1054231455#1" type="veh_petrol"/>
 <trip depart="516.86" departLane="best" from="1054231455#0" id="veh234" to="419983442#0" type="veh_diesel"/>
 <trip depart="519.07" departLane="best" from="521622380#2" id="veh235" to="8122549" type="veh_petrol"/>
 <trip depart="521.28" departLane="best" from="162057867#1" id="veh236" to="41076224#2" type="veh_petrol"/>
 <trip depart="523.48" departLane="best" from="237193349#0" id="veh237" to="24815671" type="veh_diesel"/>
 <trip depart="525.69" departLane="best" departSpeed="max" from="-330748689#1" id="veh238" to="-357762965#3" type="veh_petrol"/>
 <trip depart="527.90" departLane="best" from="168121176#0" id="veh239" to="-125164983" type="veh_diesel"/>
 <trip depart="530.11" departLane="best" from="-893729920#0" id="veh240" to="30473724#8" type="veh_petrol"/>
 <trip depart="532.32" departLane="best" from="157990331#1" id="veh241" to="-27282699#1" type="veh_petrol"/>
 <trip depart="534.53" departLane="best" from="1803215#2" id="veh242" to="-201631800#1" type="veh_diesel"/>
 <trip depart="536.74" departLane="best" from="27222739" id="veh243" to="-119371823#0" type="veh_hybrid"/>
 <trip depart="538.95" departLane="best" from="1520606#0" id="veh244" to="237204096#2" type="veh_petrol"/>
 <trip depart="541.15" departLane="best" from="-132238377" id="veh245" to="2799058#0" type="veh_petrol"/>
 <trip depart="543.36" departLane="best" departSpeed="max" from="-1987825" id="veh246" to="1757748#1" type="veh_petrol"/>
 <trip depart="545.57" departLane="best" from="-162078539#3" id="veh247" to="1096432025" type="veh_petrol"/>
 <trip depart="547.78" departLane="best" from="-30473724#6" id="veh248" to="-978551520" type="veh_petrol"/>
 <trip depart="549.99" departLane="best" from="419983470" id="veh249" to="1096432025" type="veh_diesel"/>
 <trip depart="552.20" departLane="best" from="419983452#0" id="veh250" to="502430973" type="veh_hybrid"/>
 <trip depart="554.41" departLane="best" departSpeed="max" from="-496719502#12" id="veh251" to="-1803215#3" type="veh_petrol"/>
 <trip depart="556.62" departLane="best" from="-1084623771" id="veh252" to="201994915#0" type="veh_ev"/>
 <trip depart="558.83" departLane="best" from="978551520" id="veh253" to="1057215858" type="veh_ev"/>
 <trip depart="561.03" departLane="best" from="2799050" id="veh254" to="420039030#0" type="veh_diesel"/>
 <trip depart="563.24" departLane="best" from="2799057#0" id="veh255" to="419983445" type="veh_hybrid"/>
 <trip depart="565.45" departLane="best" from="788241681#1" id="veh256" to="-30343395#2" type="veh_ev"/>
 <trip depart="567.66" departLane="best" from="-1085650226" id="veh257" to="-27201308#1" type="veh_ev"/>
 <trip depart="569.87" departLane="best" departSpeed="max" from="-1966241#2" id="veh258" to="293452705#0" type="veh_diesel"/>
 <trip depart="572.08" departLane="best" from="237232184#6" id="veh259" to="-357113628#8" type="veh_petrol"/>
 <trip depart="574.29" departLane="best" from="331903816#0" id="veh260" to="419983490#0" type="veh_petrol"/>
 <trip depart="576.50" departLane="best" from="-27222514" id="veh261" to="26154073#0" type="veh_petrol"/>
 <trip depart="578.70" departLane="best" from="419983446" id="veh262" to="-1881456" type="veh_hybrid"/>
 <trip depart="580.91" departLane="best" from="496719502#2" id="veh263" to="8122938#2" type="veh_diesel"/>
 <trip depart="583.12" departLane="best" from="-1880653" id="veh264" to="-119371823#0" type="veh_hybrid"/>
 <trip depart="585.33" departLane="best" from="-8122539#0" id="veh265" to="30473724#13" type="veh_diesel"/>
 <trip depart="587.54" departLane="best" from="8122539#1" id="veh266" to="153329971#2" type="veh_hybrid"/>
 <trip depart="589.75" departLane="best" from="359163714#0" id="veh267" to="-1792953#0" type="veh_petrol"/>
 <trip depart="591.96" departLane="best" departSpeed="max" from="30791623#0" id="veh268" to="27282697" type="veh_diesel"/>
 <trip depart="594.17" departLane="best" from="-1810996#1" id="veh269" to="419993039" type="veh_petrol"/>
 <trip depart="596.37" departLane="best" from="514277851#3" id="veh270" to="24815668#6" type="veh_petrol"/>
 <trip depart="598.58" departLane="best" from="-1881490#2" id="veh271" to="86421513#0" type="veh_hybrid"/>